
**** 09/01/17 15:52:20 ****** PSpice 17.0.0 (March 2014) ****** ID# 0 ********

 ** Profile: "Plan A DC-DC Test"  [ F:\Programs\Verilog\FPGA_Group\test_br0101\analog\br0101_ad9239\br0101_ad9239-PSpiceFiles\Plan A 


 ****     CIRCUIT DESCRIPTION


******************************************************************************




** Creating circuit file "DC Test.cir" 
** WARNING: THIS AUTOMATICALLY GENERATED FILE MAY BE OVERWRITTEN BY SUBSEQUENT SIMULATIONS

*Libraries: 
* Profile Libraries :
* Local Libraries :
.LIB "F:/Programs/Verilog/FPGA_Group/test_br0101/analog/br0101_ad9286/models/ada4937.lib" 
* From [PSPICE NETLIST] section of G:\Cadence\SPB_Data\cdssetup\OrCAD_PSpice\17.0.0\PSpice.ini file:
.lib "nom.lib" 

*Analysis directives: 
.DC LIN V_Vi -3.63 3.67 0.05 
.OPTIONS ADVCONV
.PROBE64 V(alias(*)) I(alias(*)) W(alias(*)) D(alias(*)) NOISE(alias(*)) 
.INC "..\Plan A DC.net" 



**** INCLUDING "Plan A DC.net" ****
* source BR0101_AD9239
R_R6         0 N04988  13.3k TC=0,0 
X_U1         N04882 N04966 N04874 N04958 N05104 N04908 VO+ VO- N05094 ADA4937 
R_R4         0 N05068  57.6k TC=0,0 
R_R2         N05058 N05068  17.4k TC=0,0 
R_R3         N04958 N04966  3.9k TC=0,0 
R_R1         N05068 N04958  3.9k TC=0,0 
V_V2         N05104 0 5V
R_R8         VO+ VO-  1G TC=0,0 
V_V4         N05094 0 1.4V
R_R5         N04988 N04874  3.9k TC=0,0 
V_V3         0 N04908 0Vdc
R_R7         N04874 N04882  3.9k TC=0,0 
V_Vi         N05058 0 0Vdc
.PARAM  x=1

**** RESUMING "DC Test.cir" ****
.END

**** 09/01/17 15:52:20 ****** PSpice 17.0.0 (March 2014) ****** ID# 0 ********

 ** Profile: "Plan A DC-DC Test"  [ F:\Programs\Verilog\FPGA_Group\test_br0101\analog\br0101_ad9239\br0101_ad9239-PSpiceFiles\Plan A 


 ****     Diode MODEL PARAMETERS


******************************************************************************




               X_U1.Dx         
          IS   10.000000E-15 


**** 09/01/17 15:52:20 ****** PSpice 17.0.0 (March 2014) ****** ID# 0 ********

 ** Profile: "Plan A DC-DC Test"  [ F:\Programs\Verilog\FPGA_Group\test_br0101\analog\br0101_ad9239\br0101_ad9239-PSpiceFiles\Plan A 


 ****     BJT MODEL PARAMETERS


******************************************************************************




               X_U1.QX         
               PNP             
       LEVEL    1            
          IS    1.000000E-15 
          BF  228            
          NF    1            
          BR    1            
          NR    1            
         ISS    0            
          RE    0            
          RC    0            
         CJE    0            
         VJE     .75         
         CJC    0            
         VJC     .75         
         MJC     .33         
        XCJC    1            
         CJS    0            
         VJS     .75         
          KF   10.000000E-12 
          AF    1.07         
          CN    2.2          
           D     .52         


**** 09/01/17 15:52:20 ****** PSpice 17.0.0 (March 2014) ****** ID# 0 ********

 ** Profile: "Plan A DC-DC Test"  [ F:\Programs\Verilog\FPGA_Group\test_br0101\analog\br0101_ad9239\br0101_ad9239-PSpiceFiles\Plan A 


 ****     Resistor MODEL PARAMETERS


******************************************************************************




               X_U1.RX1        X_U1.RX2        
  T_Measured   27              27            
   T_Current  -70             -70            
           R    1               1            



          JOB CONCLUDED

**** 09/01/17 15:52:20 ****** PSpice 17.0.0 (March 2014) ****** ID# 0 ********

 ** Profile: "Plan A DC-DC Test"  [ F:\Programs\Verilog\FPGA_Group\test_br0101\analog\br0101_ad9239\br0101_ad9239-PSpiceFiles\Plan A 


 ****     JOB STATISTICS SUMMARY


******************************************************************************



  Total job time (using Solver 1)   =         .13
