
**** 08/10/17 15:41:53 ****** PSpice 17.0.0 (March 2014) ****** ID# 0 ********

 ** Profile: "SCHEMATIC3-Test Plan B"  [ F:\DESIGN\CIRCUITS\OrCAD\FPGA\BR0101\br0101_ad9715\br0101_ad9715-PSpiceFiles\SCHEMATIC3\Test


 ****     CIRCUIT DESCRIPTION


******************************************************************************




** Creating circuit file "Test Plan B.cir" 
** WARNING: THIS AUTOMATICALLY GENERATED FILE MAY BE OVERWRITTEN BY SUBSEQUENT SIMULATIONS

*Libraries: 
* Profile Libraries :
* Local Libraries :
.LIB "F:/Academic/FPGA/BR0101/Development/DAC/model/ada4899.lib" 
* From [PSPICE NETLIST] section of G:\Cadence\SPB_Data\cdssetup\OrCAD_PSpice\17.0.0\PSpice.ini file:
.lib "nom.lib" 

*Analysis directives: 
.DC LIN PARAM x 0.01m 1.99m 0.02m 
.OPTIONS ADVCONV
.PROBE64 V(alias(*)) I(alias(*)) W(alias(*)) D(alias(*)) NOISE(alias(*)) 
.INC "..\SCHEMATIC3.net" 



**** INCLUDING SCHEMATIC3.net ****
* source BR0101_AD9715
R_R3         N15119 VON  1.8k TC=0,0 
X_U3         N14889 N15119 N14951 N14803 VON VON N14951 ADA4899 
X_U2         N14889 N14743 N14951 N14803 VOP VOP N14951 ADA4899 
V_V2         N14951 0 5V
R_R1         0 N14743  1.6k TC=0,0 
I_IN         0 N15119 DC {2m - x}  
V_V1         0 N14803 5V
R_R4         0 N15119  1.6k TC=0,0 
R_R2         N14743 VOP  1.8k TC=0,0 
I_IP         0 N14743 DC {x}  
R_R5         N14889 0  10k TC=0,0 
R_R6         0 N14743  1.6k TC=0,0 
R_R7         0 N15119  1.6k TC=0,0 
.PARAM  x=1m

**** RESUMING "Test Plan B.cir" ****
.END

**** 08/10/17 15:41:53 ****** PSpice 17.0.0 (March 2014) ****** ID# 0 ********

 ** Profile: "SCHEMATIC3-Test Plan B"  [ F:\DESIGN\CIRCUITS\OrCAD\FPGA\BR0101\br0101_ad9715\br0101_ad9715-PSpiceFiles\SCHEMATIC3\Test


 ****     Diode MODEL PARAMETERS


******************************************************************************




               X_U3.diode      X_U3.DzVoutP    X_U3.DzVoutN    X_U3.DVnoisy    
          IS   10.000000E-15   10.000000E-15   10.000000E-15   37.500000E-18 
          BV  100               4.3             4.3                          
          KF                                                  323.000000E-18 


               X_U3.DINnoisy   X_U3.DIPnoisy   X_U2.diode      X_U2.DzVoutP    
          IS  250.000000E-18  250.000000E-18   10.000000E-15   10.000000E-15 
          BV                                  100               4.3          
          KF  986.000000E-18  986.000000E-18                                 


               X_U2.DzVoutN    X_U2.DVnoisy    X_U2.DINnoisy   X_U2.DIPnoisy   
          IS   10.000000E-15   37.500000E-18  250.000000E-18  250.000000E-18 
          BV    4.3                                                          
          KF                  323.000000E-18  986.000000E-18  986.000000E-18 


**** 08/10/17 15:41:53 ****** PSpice 17.0.0 (March 2014) ****** ID# 0 ********

 ** Profile: "SCHEMATIC3-Test Plan B"  [ F:\DESIGN\CIRCUITS\OrCAD\FPGA\BR0101\br0101_ad9715\br0101_ad9715-PSpiceFiles\SCHEMATIC3\Test


 ****     Resistor MODEL PARAMETERS


******************************************************************************




               X_U3.Rideal     X_U2.Rideal     
  T_Measured   27              27            
   T_Current -273            -273            
           R    1               1            


**** 08/10/17 15:41:53 ****** PSpice 17.0.0 (March 2014) ****** ID# 0 ********

 ** Profile: "SCHEMATIC3-Test Plan B"  [ F:\DESIGN\CIRCUITS\OrCAD\FPGA\BR0101\br0101_ad9715\br0101_ad9715-PSpiceFiles\SCHEMATIC3\Test


 ****     Voltage Controlled Switch MODEL PARAMETERS


******************************************************************************




               X_U3.Switch     X_U3.Sswitch    X_U2.Switch     X_U2.Sswitch    
         RON    1.000000E-03    1.000000E+03    1.000000E-03    1.000000E+03 
        ROFF    1.000000E+06    1.000000E+06    1.000000E+06    1.000000E+06 
         VON     .105           4.5              .105           4.5          
        VOFF     .095            .1              .095            .1          


Model-Specific Temperatures During Sweep  Param value = 1e-005

 **** RESISTORS

               X_U3.Rz1 <X_U3.Rideal> (T_Current -273 T_Measured 27)
                              X_U3.Rz2 <X_U3.Rideal> (T_Current -273 T_Measured 27)
                                             X_U3.R3 <X_U3.Rideal> (T_Current -273 T_Measured 27)

          R        1.000E-06      1.000E-06      1.000E+03  


               X_U3.R1 <X_U3.Rideal> (T_Current -273 T_Measured 27)
                              X_U3.R2 <X_U3.Rideal> (T_Current -273 T_Measured 27)
                                             X_U3.RinCMP <X_U3.Rideal> (T_Current -273 T_Measured 27)

          R        1.000E+07      1.000E+07      7.600E+06  


               X_U3.RinCMN <X_U3.Rideal> (T_Current -273 T_Measured 27)
                              X_U3.RinDiff <X_U3.Rideal> (T_Current -273 T_Measured 27)
                                             X_U3.RInP <X_U3.Rideal> (T_Current -273 T_Measured 27)

          R        7.600E+06      4.000E+03      1.000E+03  


               X_U3.RX1 <X_U3.Rideal> (T_Current -273 T_Measured 27)
                              X_U3.RcmrrP <X_U3.Rideal> (T_Current -273 T_Measured 27)
                                             X_U3.RcmrrN <X_U3.Rideal> (T_Current -273 T_Measured 27)

          R        1.000E-03      1.000E+12      1.000E+12  


               X_U3.Rcmrr <X_U3.Rideal> (T_Current -273 T_Measured 27)
                              X_U3.RPD <X_U3.Rideal> (T_Current -273 T_Measured 27)
                                             X_U3.RDP1 <X_U3.Rideal> (T_Current -273 T_Measured 27)

          R        1.000E+03      2.860E+05      1.000E+03  


               X_U3.RF <X_U3.Rideal> (T_Current -273 T_Measured 27)
                              X_U3.R200 <X_U3.Rideal> (T_Current -273 T_Measured 27)
                                             X_U3.R210 <X_U3.Rideal> (T_Current -273 T_Measured 27)

          R        1.000E-03      1.000E+00      5.137E+06  


               X_U3.RX2 <X_U3.Rideal> (T_Current -273 T_Measured 27)
                              X_U3.R220 <X_U3.Rideal> (T_Current -273 T_Measured 27)
                                             X_U3.R230 <X_U3.Rideal> (T_Current -273 T_Measured 27)

          R        1.000E-03      1.000E+03      1.000E+03  


               X_U3.R240 <X_U3.Rideal> (T_Current -273 T_Measured 27)
                              X_U3.R245 <X_U3.Rideal> (T_Current -273 T_Measured 27)
                                             X_U3.R250 <X_U3.Rideal> (T_Current -273 T_Measured 27)

          R        1.000E+03      1.000E+03      1.000E+03  


               X_U3.R255 <X_U3.Rideal> (T_Current -273 T_Measured 27)
                              X_U3.R260 <X_U3.Rideal> (T_Current -273 T_Measured 27)
                                             X_U3.R265 <X_U3.Rideal> (T_Current -273 T_Measured 27)

          R        1.000E+03      1.000E+03      1.000E+03  


               X_U3.R270 <X_U3.Rideal> (T_Current -273 T_Measured 27)
                              X_U3.R281 <X_U3.Rideal> (T_Current -273 T_Measured 27)
                                             X_U3.R280 <X_U3.Rideal> (T_Current -273 T_Measured 27)

          R        1.000E+03      3.862E+01      1.000E+01  


               X_U3.R291 <X_U3.Rideal> (T_Current -273 T_Measured 27)
                              X_U3.R290 <X_U3.Rideal> (T_Current -273 T_Measured 27)
                                             X_U3.R300 <X_U3.Rideal> (T_Current -273 T_Measured 27)

          R        1.000E+06      1.000E-06      1.000E+03  


               X_U3.Rout <X_U3.Rideal> (T_Current -273 T_Measured 27)
                              X_U3.Rx3 <X_U3.Rideal> (T_Current -273 T_Measured 27)
                                             X_U3.RX4 <X_U3.Rideal> (T_Current -273 T_Measured 27)

          R        2.300E+01      1.000E-03      1.000E-03  


               X_U3.R314 <X_U3.Rideal> (T_Current -273 T_Measured 27)
                              X_U3.RX5 <X_U3.Rideal> (T_Current -273 T_Measured 27)
                                             X_U3.R315 <X_U3.Rideal> (T_Current -273 T_Measured 27)

          R        1.000E+09      1.000E-03      1.000E+09  


               X_U2.Rz1 <X_U2.Rideal> (T_Current -273 T_Measured 27)
                              X_U2.Rz2 <X_U2.Rideal> (T_Current -273 T_Measured 27)
                                             X_U2.R3 <X_U2.Rideal> (T_Current -273 T_Measured 27)

          R        1.000E-06      1.000E-06      1.000E+03  


               X_U2.R1 <X_U2.Rideal> (T_Current -273 T_Measured 27)
                              X_U2.R2 <X_U2.Rideal> (T_Current -273 T_Measured 27)
                                             X_U2.RinCMP <X_U2.Rideal> (T_Current -273 T_Measured 27)

          R        1.000E+07      1.000E+07      7.600E+06  


               X_U2.RinCMN <X_U2.Rideal> (T_Current -273 T_Measured 27)
                              X_U2.RinDiff <X_U2.Rideal> (T_Current -273 T_Measured 27)
                                             X_U2.RInP <X_U2.Rideal> (T_Current -273 T_Measured 27)

          R        7.600E+06      4.000E+03      1.000E+03  


               X_U2.RX1 <X_U2.Rideal> (T_Current -273 T_Measured 27)
                              X_U2.RcmrrP <X_U2.Rideal> (T_Current -273 T_Measured 27)
                                             X_U2.RcmrrN <X_U2.Rideal> (T_Current -273 T_Measured 27)

          R        1.000E-03      1.000E+12      1.000E+12  


               X_U2.Rcmrr <X_U2.Rideal> (T_Current -273 T_Measured 27)
                              X_U2.RPD <X_U2.Rideal> (T_Current -273 T_Measured 27)
                                             X_U2.RDP1 <X_U2.Rideal> (T_Current -273 T_Measured 27)

          R        1.000E+03      2.860E+05      1.000E+03  


               X_U2.RF <X_U2.Rideal> (T_Current -273 T_Measured 27)
                              X_U2.R200 <X_U2.Rideal> (T_Current -273 T_Measured 27)
                                             X_U2.R210 <X_U2.Rideal> (T_Current -273 T_Measured 27)

          R        1.000E-03      1.000E+00      5.137E+06  


               X_U2.RX2 <X_U2.Rideal> (T_Current -273 T_Measured 27)
                              X_U2.R220 <X_U2.Rideal> (T_Current -273 T_Measured 27)
                                             X_U2.R230 <X_U2.Rideal> (T_Current -273 T_Measured 27)

          R        1.000E-03      1.000E+03      1.000E+03  


               X_U2.R240 <X_U2.Rideal> (T_Current -273 T_Measured 27)
                              X_U2.R245 <X_U2.Rideal> (T_Current -273 T_Measured 27)
                                             X_U2.R250 <X_U2.Rideal> (T_Current -273 T_Measured 27)

          R        1.000E+03      1.000E+03      1.000E+03  


               X_U2.R255 <X_U2.Rideal> (T_Current -273 T_Measured 27)
                              X_U2.R260 <X_U2.Rideal> (T_Current -273 T_Measured 27)
                                             X_U2.R265 <X_U2.Rideal> (T_Current -273 T_Measured 27)

          R        1.000E+03      1.000E+03      1.000E+03  


               X_U2.R270 <X_U2.Rideal> (T_Current -273 T_Measured 27)
                              X_U2.R281 <X_U2.Rideal> (T_Current -273 T_Measured 27)
                                             X_U2.R280 <X_U2.Rideal> (T_Current -273 T_Measured 27)

          R        1.000E+03      3.862E+01      1.000E+01  


               X_U2.R291 <X_U2.Rideal> (T_Current -273 T_Measured 27)
                              X_U2.R290 <X_U2.Rideal> (T_Current -273 T_Measured 27)
                                             X_U2.R300 <X_U2.Rideal> (T_Current -273 T_Measured 27)

          R        1.000E+06      1.000E-06      1.000E+03  


               X_U2.Rout <X_U2.Rideal> (T_Current -273 T_Measured 27)
                              X_U2.Rx3 <X_U2.Rideal> (T_Current -273 T_Measured 27)
                                             X_U2.RX4 <X_U2.Rideal> (T_Current -273 T_Measured 27)

          R        2.300E+01      1.000E-03      1.000E-03  


               X_U2.R314 <X_U2.Rideal> (T_Current -273 T_Measured 27)
                              X_U2.RX5 <X_U2.Rideal> (T_Current -273 T_Measured 27)
                                             X_U2.R315 <X_U2.Rideal> (T_Current -273 T_Measured 27)

          R        1.000E+09      1.000E-03      1.000E+09  



Model-Specific Temperatures During Sweep  Param value = 3e-005

 **** RESISTORS

               X_U3.Rz1 <X_U3.Rideal> (T_Current -273 T_Measured 27)
                              X_U3.Rz2 <X_U3.Rideal> (T_Current -273 T_Measured 27)
                                             X_U3.R3 <X_U3.Rideal> (T_Current -273 T_Measured 27)

          R        1.000E-06      1.000E-06      1.000E+03  


               X_U3.R1 <X_U3.Rideal> (T_Current -273 T_Measured 27)
                              X_U3.R2 <X_U3.Rideal> (T_Current -273 T_Measured 27)
                                             X_U3.RinCMP <X_U3.Rideal> (T_Current -273 T_Measured 27)

          R        1.000E+07      1.000E+07      7.600E+06  


               X_U3.RinCMN <X_U3.Rideal> (T_Current -273 T_Measured 27)
                              X_U3.RinDiff <X_U3.Rideal> (T_Current -273 T_Measured 27)
                                             X_U3.RInP <X_U3.Rideal> (T_Current -273 T_Measured 27)

          R        7.600E+06      4.000E+03      1.000E+03  


               X_U3.RX1 <X_U3.Rideal> (T_Current -273 T_Measured 27)
                              X_U3.RcmrrP <X_U3.Rideal> (T_Current -273 T_Measured 27)
                                             X_U3.RcmrrN <X_U3.Rideal> (T_Current -273 T_Measured 27)

          R        1.000E-03      1.000E+12      1.000E+12  


               X_U3.Rcmrr <X_U3.Rideal> (T_Current -273 T_Measured 27)
                              X_U3.RPD <X_U3.Rideal> (T_Current -273 T_Measured 27)
                                             X_U3.RDP1 <X_U3.Rideal> (T_Current -273 T_Measured 27)

          R        1.000E+03      2.860E+05      1.000E+03  


               X_U3.RF <X_U3.Rideal> (T_Current -273 T_Measured 27)
                              X_U3.R200 <X_U3.Rideal> (T_Current -273 T_Measured 27)
                                             X_U3.R210 <X_U3.Rideal> (T_Current -273 T_Measured 27)

          R        1.000E-03      1.000E+00      5.137E+06  


               X_U3.RX2 <X_U3.Rideal> (T_Current -273 T_Measured 27)
                              X_U3.R220 <X_U3.Rideal> (T_Current -273 T_Measured 27)
                                             X_U3.R230 <X_U3.Rideal> (T_Current -273 T_Measured 27)

          R        1.000E-03      1.000E+03      1.000E+03  


               X_U3.R240 <X_U3.Rideal> (T_Current -273 T_Measured 27)
                              X_U3.R245 <X_U3.Rideal> (T_Current -273 T_Measured 27)
                                             X_U3.R250 <X_U3.Rideal> (T_Current -273 T_Measured 27)

          R        1.000E+03      1.000E+03      1.000E+03  


               X_U3.R255 <X_U3.Rideal> (T_Current -273 T_Measured 27)
                              X_U3.R260 <X_U3.Rideal> (T_Current -273 T_Measured 27)
                                             X_U3.R265 <X_U3.Rideal> (T_Current -273 T_Measured 27)

          R        1.000E+03      1.000E+03      1.000E+03  


               X_U3.R270 <X_U3.Rideal> (T_Current -273 T_Measured 27)
                              X_U3.R281 <X_U3.Rideal> (T_Current -273 T_Measured 27)
                                             X_U3.R280 <X_U3.Rideal> (T_Current -273 T_Measured 27)

          R        1.000E+03      3.862E+01      1.000E+01  


               X_U3.R291 <X_U3.Rideal> (T_Current -273 T_Measured 27)
                              X_U3.R290 <X_U3.Rideal> (T_Current -273 T_Measured 27)
                                             X_U3.R300 <X_U3.Rideal> (T_Current -273 T_Measured 27)

          R        1.000E+06      1.000E-06      1.000E+03  


               X_U3.Rout <X_U3.Rideal> (T_Current -273 T_Measured 27)
                              X_U3.Rx3 <X_U3.Rideal> (T_Current -273 T_Measured 27)
                                             X_U3.RX4 <X_U3.Rideal> (T_Current -273 T_Measured 27)

          R        2.300E+01      1.000E-03      1.000E-03  


               X_U3.R314 <X_U3.Rideal> (T_Current -273 T_Measured 27)
                              X_U3.RX5 <X_U3.Rideal> (T_Current -273 T_Measured 27)
                                             X_U3.R315 <X_U3.Rideal> (T_Current -273 T_Measured 27)

          R        1.000E+09      1.000E-03      1.000E+09  


               X_U2.Rz1 <X_U2.Rideal> (T_Current -273 T_Measured 27)
                              X_U2.Rz2 <X_U2.Rideal> (T_Current -273 T_Measured 27)
                                             X_U2.R3 <X_U2.Rideal> (T_Current -273 T_Measured 27)

          R        1.000E-06      1.000E-06      1.000E+03  


               X_U2.R1 <X_U2.Rideal> (T_Current -273 T_Measured 27)
                              X_U2.R2 <X_U2.Rideal> (T_Current -273 T_Measured 27)
                                             X_U2.RinCMP <X_U2.Rideal> (T_Current -273 T_Measured 27)

          R        1.000E+07      1.000E+07      7.600E+06  


               X_U2.RinCMN <X_U2.Rideal> (T_Current -273 T_Measured 27)
                              X_U2.RinDiff <X_U2.Rideal> (T_Current -273 T_Measured 27)
                                             X_U2.RInP <X_U2.Rideal> (T_Current -273 T_Measured 27)

          R        7.600E+06      4.000E+03      1.000E+03  


               X_U2.RX1 <X_U2.Rideal> (T_Current -273 T_Measured 27)
                              X_U2.RcmrrP <X_U2.Rideal> (T_Current -273 T_Measured 27)
                                             X_U2.RcmrrN <X_U2.Rideal> (T_Current -273 T_Measured 27)

          R        1.000E-03      1.000E+12      1.000E+12  


               X_U2.Rcmrr <X_U2.Rideal> (T_Current -273 T_Measured 27)
                              X_U2.RPD <X_U2.Rideal> (T_Current -273 T_Measured 27)
                                             X_U2.RDP1 <X_U2.Rideal> (T_Current -273 T_Measured 27)

          R        1.000E+03      2.860E+05      1.000E+03  


               X_U2.RF <X_U2.Rideal> (T_Current -273 T_Measured 27)
                              X_U2.R200 <X_U2.Rideal> (T_Current -273 T_Measured 27)
                                             X_U2.R210 <X_U2.Rideal> (T_Current -273 T_Measured 27)

          R        1.000E-03      1.000E+00      5.137E+06  


               X_U2.RX2 <X_U2.Rideal> (T_Current -273 T_Measured 27)
                              X_U2.R220 <X_U2.Rideal> (T_Current -273 T_Measured 27)
                                             X_U2.R230 <X_U2.Rideal> (T_Current -273 T_Measured 27)

          R        1.000E-03      1.000E+03      1.000E+03  


               X_U2.R240 <X_U2.Rideal> (T_Current -273 T_Measured 27)
                              X_U2.R245 <X_U2.Rideal> (T_Current -273 T_Measured 27)
                                             X_U2.R250 <X_U2.Rideal> (T_Current -273 T_Measured 27)

          R        1.000E+03      1.000E+03      1.000E+03  


               X_U2.R255 <X_U2.Rideal> (T_Current -273 T_Measured 27)
                              X_U2.R260 <X_U2.Rideal> (T_Current -273 T_Measured 27)
                                             X_U2.R265 <X_U2.Rideal> (T_Current -273 T_Measured 27)

          R        1.000E+03      1.000E+03      1.000E+03  


               X_U2.R270 <X_U2.Rideal> (T_Current -273 T_Measured 27)
                              X_U2.R281 <X_U2.Rideal> (T_Current -273 T_Measured 27)
                                             X_U2.R280 <X_U2.Rideal> (T_Current -273 T_Measured 27)

          R        1.000E+03      3.862E+01      1.000E+01  


               X_U2.R291 <X_U2.Rideal> (T_Current -273 T_Measured 27)
                              X_U2.R290 <X_U2.Rideal> (T_Current -273 T_Measured 27)
                                             X_U2.R300 <X_U2.Rideal> (T_Current -273 T_Measured 27)

          R        1.000E+06      1.000E-06      1.000E+03  


               X_U2.Rout <X_U2.Rideal> (T_Current -273 T_Measured 27)
                              X_U2.Rx3 <X_U2.Rideal> (T_Current -273 T_Measured 27)
                                             X_U2.RX4 <X_U2.Rideal> (T_Current -273 T_Measured 27)

          R        2.300E+01      1.000E-03      1.000E-03  


               X_U2.R314 <X_U2.Rideal> (T_Current -273 T_Measured 27)
                              X_U2.RX5 <X_U2.Rideal> (T_Current -273 T_Measured 27)
                                             X_U2.R315 <X_U2.Rideal> (T_Current -273 T_Measured 27)

          R        1.000E+09      1.000E-03      1.000E+09  



Model-Specific Temperatures During Sweep  Param value = 5e-005

 **** RESISTORS

               X_U3.Rz1 <X_U3.Rideal> (T_Current -273 T_Measured 27)
                              X_U3.Rz2 <X_U3.Rideal> (T_Current -273 T_Measured 27)
                                             X_U3.R3 <X_U3.Rideal> (T_Current -273 T_Measured 27)

          R        1.000E-06      1.000E-06      1.000E+03  


               X_U3.R1 <X_U3.Rideal> (T_Current -273 T_Measured 27)
                              X_U3.R2 <X_U3.Rideal> (T_Current -273 T_Measured 27)
                                             X_U3.RinCMP <X_U3.Rideal> (T_Current -273 T_Measured 27)

          R        1.000E+07      1.000E+07      7.600E+06  


               X_U3.RinCMN <X_U3.Rideal> (T_Current -273 T_Measured 27)
                              X_U3.RinDiff <X_U3.Rideal> (T_Current -273 T_Measured 27)
                                             X_U3.RInP <X_U3.Rideal> (T_Current -273 T_Measured 27)

          R        7.600E+06      4.000E+03      1.000E+03  


               X_U3.RX1 <X_U3.Rideal> (T_Current -273 T_Measured 27)
                              X_U3.RcmrrP <X_U3.Rideal> (T_Current -273 T_Measured 27)
                                             X_U3.RcmrrN <X_U3.Rideal> (T_Current -273 T_Measured 27)

          R        1.000E-03      1.000E+12      1.000E+12  


               X_U3.Rcmrr <X_U3.Rideal> (T_Current -273 T_Measured 27)
                              X_U3.RPD <X_U3.Rideal> (T_Current -273 T_Measured 27)
                                             X_U3.RDP1 <X_U3.Rideal> (T_Current -273 T_Measured 27)

          R        1.000E+03      2.860E+05      1.000E+03  


               X_U3.RF <X_U3.Rideal> (T_Current -273 T_Measured 27)
                              X_U3.R200 <X_U3.Rideal> (T_Current -273 T_Measured 27)
                                             X_U3.R210 <X_U3.Rideal> (T_Current -273 T_Measured 27)

          R        1.000E-03      1.000E+00      5.137E+06  


               X_U3.RX2 <X_U3.Rideal> (T_Current -273 T_Measured 27)
                              X_U3.R220 <X_U3.Rideal> (T_Current -273 T_Measured 27)
                                             X_U3.R230 <X_U3.Rideal> (T_Current -273 T_Measured 27)

          R        1.000E-03      1.000E+03      1.000E+03  


               X_U3.R240 <X_U3.Rideal> (T_Current -273 T_Measured 27)
                              X_U3.R245 <X_U3.Rideal> (T_Current -273 T_Measured 27)
                                             X_U3.R250 <X_U3.Rideal> (T_Current -273 T_Measured 27)

          R        1.000E+03      1.000E+03      1.000E+03  


               X_U3.R255 <X_U3.Rideal> (T_Current -273 T_Measured 27)
                              X_U3.R260 <X_U3.Rideal> (T_Current -273 T_Measured 27)
                                             X_U3.R265 <X_U3.Rideal> (T_Current -273 T_Measured 27)

          R        1.000E+03      1.000E+03      1.000E+03  


               X_U3.R270 <X_U3.Rideal> (T_Current -273 T_Measured 27)
                              X_U3.R281 <X_U3.Rideal> (T_Current -273 T_Measured 27)
                                             X_U3.R280 <X_U3.Rideal> (T_Current -273 T_Measured 27)

          R        1.000E+03      3.862E+01      1.000E+01  


               X_U3.R291 <X_U3.Rideal> (T_Current -273 T_Measured 27)
                              X_U3.R290 <X_U3.Rideal> (T_Current -273 T_Measured 27)
                                             X_U3.R300 <X_U3.Rideal> (T_Current -273 T_Measured 27)

          R        1.000E+06      1.000E-06      1.000E+03  


               X_U3.Rout <X_U3.Rideal> (T_Current -273 T_Measured 27)
                              X_U3.Rx3 <X_U3.Rideal> (T_Current -273 T_Measured 27)
                                             X_U3.RX4 <X_U3.Rideal> (T_Current -273 T_Measured 27)

          R        2.300E+01      1.000E-03      1.000E-03  


               X_U3.R314 <X_U3.Rideal> (T_Current -273 T_Measured 27)
                              X_U3.RX5 <X_U3.Rideal> (T_Current -273 T_Measured 27)
                                             X_U3.R315 <X_U3.Rideal> (T_Current -273 T_Measured 27)

          R        1.000E+09      1.000E-03      1.000E+09  


               X_U2.Rz1 <X_U2.Rideal> (T_Current -273 T_Measured 27)
                              X_U2.Rz2 <X_U2.Rideal> (T_Current -273 T_Measured 27)
                                             X_U2.R3 <X_U2.Rideal> (T_Current -273 T_Measured 27)

          R        1.000E-06      1.000E-06      1.000E+03  


               X_U2.R1 <X_U2.Rideal> (T_Current -273 T_Measured 27)
                              X_U2.R2 <X_U2.Rideal> (T_Current -273 T_Measured 27)
                                             X_U2.RinCMP <X_U2.Rideal> (T_Current -273 T_Measured 27)

          R        1.000E+07      1.000E+07      7.600E+06  


               X_U2.RinCMN <X_U2.Rideal> (T_Current -273 T_Measured 27)
                              X_U2.RinDiff <X_U2.Rideal> (T_Current -273 T_Measured 27)
                                             X_U2.RInP <X_U2.Rideal> (T_Current -273 T_Measured 27)

          R        7.600E+06      4.000E+03      1.000E+03  


               X_U2.RX1 <X_U2.Rideal> (T_Current -273 T_Measured 27)
                              X_U2.RcmrrP <X_U2.Rideal> (T_Current -273 T_Measured 27)
                                             X_U2.RcmrrN <X_U2.Rideal> (T_Current -273 T_Measured 27)

          R        1.000E-03      1.000E+12      1.000E+12  


               X_U2.Rcmrr <X_U2.Rideal> (T_Current -273 T_Measured 27)
                              X_U2.RPD <X_U2.Rideal> (T_Current -273 T_Measured 27)
                                             X_U2.RDP1 <X_U2.Rideal> (T_Current -273 T_Measured 27)

          R        1.000E+03      2.860E+05      1.000E+03  


               X_U2.RF <X_U2.Rideal> (T_Current -273 T_Measured 27)
                              X_U2.R200 <X_U2.Rideal> (T_Current -273 T_Measured 27)
                                             X_U2.R210 <X_U2.Rideal> (T_Current -273 T_Measured 27)

          R        1.000E-03      1.000E+00      5.137E+06  


               X_U2.RX2 <X_U2.Rideal> (T_Current -273 T_Measured 27)
                              X_U2.R220 <X_U2.Rideal> (T_Current -273 T_Measured 27)
                                             X_U2.R230 <X_U2.Rideal> (T_Current -273 T_Measured 27)

          R        1.000E-03      1.000E+03      1.000E+03  


               X_U2.R240 <X_U2.Rideal> (T_Current -273 T_Measured 27)
                              X_U2.R245 <X_U2.Rideal> (T_Current -273 T_Measured 27)
                                             X_U2.R250 <X_U2.Rideal> (T_Current -273 T_Measured 27)

          R        1.000E+03      1.000E+03      1.000E+03  


               X_U2.R255 <X_U2.Rideal> (T_Current -273 T_Measured 27)
                              X_U2.R260 <X_U2.Rideal> (T_Current -273 T_Measured 27)
                                             X_U2.R265 <X_U2.Rideal> (T_Current -273 T_Measured 27)

          R        1.000E+03      1.000E+03      1.000E+03  


               X_U2.R270 <X_U2.Rideal> (T_Current -273 T_Measured 27)
                              X_U2.R281 <X_U2.Rideal> (T_Current -273 T_Measured 27)
                                             X_U2.R280 <X_U2.Rideal> (T_Current -273 T_Measured 27)

          R        1.000E+03      3.862E+01      1.000E+01  


               X_U2.R291 <X_U2.Rideal> (T_Current -273 T_Measured 27)
                              X_U2.R290 <X_U2.Rideal> (T_Current -273 T_Measured 27)
                                             X_U2.R300 <X_U2.Rideal> (T_Current -273 T_Measured 27)

          R        1.000E+06      1.000E-06      1.000E+03  


               X_U2.Rout <X_U2.Rideal> (T_Current -273 T_Measured 27)
                              X_U2.Rx3 <X_U2.Rideal> (T_Current -273 T_Measured 27)
                                             X_U2.RX4 <X_U2.Rideal> (T_Current -273 T_Measured 27)

          R        2.300E+01      1.000E-03      1.000E-03  


               X_U2.R314 <X_U2.Rideal> (T_Current -273 T_Measured 27)
                              X_U2.RX5 <X_U2.Rideal> (T_Current -273 T_Measured 27)
                                             X_U2.R315 <X_U2.Rideal> (T_Current -273 T_Measured 27)

          R        1.000E+09      1.000E-03      1.000E+09  



Model-Specific Temperatures During Sweep  Param value = 7e-005

 **** RESISTORS

               X_U3.Rz1 <X_U3.Rideal> (T_Current -273 T_Measured 27)
                              X_U3.Rz2 <X_U3.Rideal> (T_Current -273 T_Measured 27)
                                             X_U3.R3 <X_U3.Rideal> (T_Current -273 T_Measured 27)

          R        1.000E-06      1.000E-06      1.000E+03  


               X_U3.R1 <X_U3.Rideal> (T_Current -273 T_Measured 27)
                              X_U3.R2 <X_U3.Rideal> (T_Current -273 T_Measured 27)
                                             X_U3.RinCMP <X_U3.Rideal> (T_Current -273 T_Measured 27)

          R        1.000E+07      1.000E+07      7.600E+06  


               X_U3.RinCMN <X_U3.Rideal> (T_Current -273 T_Measured 27)
                              X_U3.RinDiff <X_U3.Rideal> (T_Current -273 T_Measured 27)
                                             X_U3.RInP <X_U3.Rideal> (T_Current -273 T_Measured 27)

          R        7.600E+06      4.000E+03      1.000E+03  


               X_U3.RX1 <X_U3.Rideal> (T_Current -273 T_Measured 27)
                              X_U3.RcmrrP <X_U3.Rideal> (T_Current -273 T_Measured 27)
                                             X_U3.RcmrrN <X_U3.Rideal> (T_Current -273 T_Measured 27)

          R        1.000E-03      1.000E+12      1.000E+12  


               X_U3.Rcmrr <X_U3.Rideal> (T_Current -273 T_Measured 27)
                              X_U3.RPD <X_U3.Rideal> (T_Current -273 T_Measured 27)
                                             X_U3.RDP1 <X_U3.Rideal> (T_Current -273 T_Measured 27)

          R        1.000E+03      2.860E+05      1.000E+03  


               X_U3.RF <X_U3.Rideal> (T_Current -273 T_Measured 27)
                              X_U3.R200 <X_U3.Rideal> (T_Current -273 T_Measured 27)
                                             X_U3.R210 <X_U3.Rideal> (T_Current -273 T_Measured 27)

          R        1.000E-03      1.000E+00      5.137E+06  


               X_U3.RX2 <X_U3.Rideal> (T_Current -273 T_Measured 27)
                              X_U3.R220 <X_U3.Rideal> (T_Current -273 T_Measured 27)
                                             X_U3.R230 <X_U3.Rideal> (T_Current -273 T_Measured 27)

          R        1.000E-03      1.000E+03      1.000E+03  


               X_U3.R240 <X_U3.Rideal> (T_Current -273 T_Measured 27)
                              X_U3.R245 <X_U3.Rideal> (T_Current -273 T_Measured 27)
                                             X_U3.R250 <X_U3.Rideal> (T_Current -273 T_Measured 27)

          R        1.000E+03      1.000E+03      1.000E+03  


               X_U3.R255 <X_U3.Rideal> (T_Current -273 T_Measured 27)
                              X_U3.R260 <X_U3.Rideal> (T_Current -273 T_Measured 27)
                                             X_U3.R265 <X_U3.Rideal> (T_Current -273 T_Measured 27)

          R        1.000E+03      1.000E+03      1.000E+03  


               X_U3.R270 <X_U3.Rideal> (T_Current -273 T_Measured 27)
                              X_U3.R281 <X_U3.Rideal> (T_Current -273 T_Measured 27)
                                             X_U3.R280 <X_U3.Rideal> (T_Current -273 T_Measured 27)

          R        1.000E+03      3.862E+01      1.000E+01  


               X_U3.R291 <X_U3.Rideal> (T_Current -273 T_Measured 27)
                              X_U3.R290 <X_U3.Rideal> (T_Current -273 T_Measured 27)
                                             X_U3.R300 <X_U3.Rideal> (T_Current -273 T_Measured 27)

          R        1.000E+06      1.000E-06      1.000E+03  


               X_U3.Rout <X_U3.Rideal> (T_Current -273 T_Measured 27)
                              X_U3.Rx3 <X_U3.Rideal> (T_Current -273 T_Measured 27)
                                             X_U3.RX4 <X_U3.Rideal> (T_Current -273 T_Measured 27)

          R        2.300E+01      1.000E-03      1.000E-03  


               X_U3.R314 <X_U3.Rideal> (T_Current -273 T_Measured 27)
                              X_U3.RX5 <X_U3.Rideal> (T_Current -273 T_Measured 27)
                                             X_U3.R315 <X_U3.Rideal> (T_Current -273 T_Measured 27)

          R        1.000E+09      1.000E-03      1.000E+09  


               X_U2.Rz1 <X_U2.Rideal> (T_Current -273 T_Measured 27)
                              X_U2.Rz2 <X_U2.Rideal> (T_Current -273 T_Measured 27)
                                             X_U2.R3 <X_U2.Rideal> (T_Current -273 T_Measured 27)

          R        1.000E-06      1.000E-06      1.000E+03  


               X_U2.R1 <X_U2.Rideal> (T_Current -273 T_Measured 27)
                              X_U2.R2 <X_U2.Rideal> (T_Current -273 T_Measured 27)
                                             X_U2.RinCMP <X_U2.Rideal> (T_Current -273 T_Measured 27)

          R        1.000E+07      1.000E+07      7.600E+06  


               X_U2.RinCMN <X_U2.Rideal> (T_Current -273 T_Measured 27)
                              X_U2.RinDiff <X_U2.Rideal> (T_Current -273 T_Measured 27)
                                             X_U2.RInP <X_U2.Rideal> (T_Current -273 T_Measured 27)

          R        7.600E+06      4.000E+03      1.000E+03  


               X_U2.RX1 <X_U2.Rideal> (T_Current -273 T_Measured 27)
                              X_U2.RcmrrP <X_U2.Rideal> (T_Current -273 T_Measured 27)
                                             X_U2.RcmrrN <X_U2.Rideal> (T_Current -273 T_Measured 27)

          R        1.000E-03      1.000E+12      1.000E+12  


               X_U2.Rcmrr <X_U2.Rideal> (T_Current -273 T_Measured 27)
                              X_U2.RPD <X_U2.Rideal> (T_Current -273 T_Measured 27)
                                             X_U2.RDP1 <X_U2.Rideal> (T_Current -273 T_Measured 27)

          R        1.000E+03      2.860E+05      1.000E+03  


               X_U2.RF <X_U2.Rideal> (T_Current -273 T_Measured 27)
                              X_U2.R200 <X_U2.Rideal> (T_Current -273 T_Measured 27)
                                             X_U2.R210 <X_U2.Rideal> (T_Current -273 T_Measured 27)

          R        1.000E-03      1.000E+00      5.137E+06  


               X_U2.RX2 <X_U2.Rideal> (T_Current -273 T_Measured 27)
                              X_U2.R220 <X_U2.Rideal> (T_Current -273 T_Measured 27)
                                             X_U2.R230 <X_U2.Rideal> (T_Current -273 T_Measured 27)

          R        1.000E-03      1.000E+03      1.000E+03  


               X_U2.R240 <X_U2.Rideal> (T_Current -273 T_Measured 27)
                              X_U2.R245 <X_U2.Rideal> (T_Current -273 T_Measured 27)
                                             X_U2.R250 <X_U2.Rideal> (T_Current -273 T_Measured 27)

          R        1.000E+03      1.000E+03      1.000E+03  


               X_U2.R255 <X_U2.Rideal> (T_Current -273 T_Measured 27)
                              X_U2.R260 <X_U2.Rideal> (T_Current -273 T_Measured 27)
                                             X_U2.R265 <X_U2.Rideal> (T_Current -273 T_Measured 27)

          R        1.000E+03      1.000E+03      1.000E+03  


               X_U2.R270 <X_U2.Rideal> (T_Current -273 T_Measured 27)
                              X_U2.R281 <X_U2.Rideal> (T_Current -273 T_Measured 27)
                                             X_U2.R280 <X_U2.Rideal> (T_Current -273 T_Measured 27)

          R        1.000E+03      3.862E+01      1.000E+01  


               X_U2.R291 <X_U2.Rideal> (T_Current -273 T_Measured 27)
                              X_U2.R290 <X_U2.Rideal> (T_Current -273 T_Measured 27)
                                             X_U2.R300 <X_U2.Rideal> (T_Current -273 T_Measured 27)

          R        1.000E+06      1.000E-06      1.000E+03  


               X_U2.Rout <X_U2.Rideal> (T_Current -273 T_Measured 27)
                              X_U2.Rx3 <X_U2.Rideal> (T_Current -273 T_Measured 27)
                                             X_U2.RX4 <X_U2.Rideal> (T_Current -273 T_Measured 27)

          R        2.300E+01      1.000E-03      1.000E-03  


               X_U2.R314 <X_U2.Rideal> (T_Current -273 T_Measured 27)
                              X_U2.RX5 <X_U2.Rideal> (T_Current -273 T_Measured 27)
                                             X_U2.R315 <X_U2.Rideal> (T_Current -273 T_Measured 27)

          R        1.000E+09      1.000E-03      1.000E+09  



Model-Specific Temperatures During Sweep  Param value = 9e-005

 **** RESISTORS

               X_U3.Rz1 <X_U3.Rideal> (T_Current -273 T_Measured 27)
                              X_U3.Rz2 <X_U3.Rideal> (T_Current -273 T_Measured 27)
                                             X_U3.R3 <X_U3.Rideal> (T_Current -273 T_Measured 27)

          R        1.000E-06      1.000E-06      1.000E+03  


               X_U3.R1 <X_U3.Rideal> (T_Current -273 T_Measured 27)
                              X_U3.R2 <X_U3.Rideal> (T_Current -273 T_Measured 27)
                                             X_U3.RinCMP <X_U3.Rideal> (T_Current -273 T_Measured 27)

          R        1.000E+07      1.000E+07      7.600E+06  


               X_U3.RinCMN <X_U3.Rideal> (T_Current -273 T_Measured 27)
                              X_U3.RinDiff <X_U3.Rideal> (T_Current -273 T_Measured 27)
                                             X_U3.RInP <X_U3.Rideal> (T_Current -273 T_Measured 27)

          R        7.600E+06      4.000E+03      1.000E+03  


               X_U3.RX1 <X_U3.Rideal> (T_Current -273 T_Measured 27)
                              X_U3.RcmrrP <X_U3.Rideal> (T_Current -273 T_Measured 27)
                                             X_U3.RcmrrN <X_U3.Rideal> (T_Current -273 T_Measured 27)

          R        1.000E-03      1.000E+12      1.000E+12  


               X_U3.Rcmrr <X_U3.Rideal> (T_Current -273 T_Measured 27)
                              X_U3.RPD <X_U3.Rideal> (T_Current -273 T_Measured 27)
                                             X_U3.RDP1 <X_U3.Rideal> (T_Current -273 T_Measured 27)

          R        1.000E+03      2.860E+05      1.000E+03  


               X_U3.RF <X_U3.Rideal> (T_Current -273 T_Measured 27)
                              X_U3.R200 <X_U3.Rideal> (T_Current -273 T_Measured 27)
                                             X_U3.R210 <X_U3.Rideal> (T_Current -273 T_Measured 27)

          R        1.000E-03      1.000E+00      5.137E+06  


               X_U3.RX2 <X_U3.Rideal> (T_Current -273 T_Measured 27)
                              X_U3.R220 <X_U3.Rideal> (T_Current -273 T_Measured 27)
                                             X_U3.R230 <X_U3.Rideal> (T_Current -273 T_Measured 27)

          R        1.000E-03      1.000E+03      1.000E+03  


               X_U3.R240 <X_U3.Rideal> (T_Current -273 T_Measured 27)
                              X_U3.R245 <X_U3.Rideal> (T_Current -273 T_Measured 27)
                                             X_U3.R250 <X_U3.Rideal> (T_Current -273 T_Measured 27)

          R        1.000E+03      1.000E+03      1.000E+03  


               X_U3.R255 <X_U3.Rideal> (T_Current -273 T_Measured 27)
                              X_U3.R260 <X_U3.Rideal> (T_Current -273 T_Measured 27)
                                             X_U3.R265 <X_U3.Rideal> (T_Current -273 T_Measured 27)

          R        1.000E+03      1.000E+03      1.000E+03  


               X_U3.R270 <X_U3.Rideal> (T_Current -273 T_Measured 27)
                              X_U3.R281 <X_U3.Rideal> (T_Current -273 T_Measured 27)
                                             X_U3.R280 <X_U3.Rideal> (T_Current -273 T_Measured 27)

          R        1.000E+03      3.862E+01      1.000E+01  


               X_U3.R291 <X_U3.Rideal> (T_Current -273 T_Measured 27)
                              X_U3.R290 <X_U3.Rideal> (T_Current -273 T_Measured 27)
                                             X_U3.R300 <X_U3.Rideal> (T_Current -273 T_Measured 27)

          R        1.000E+06      1.000E-06      1.000E+03  


               X_U3.Rout <X_U3.Rideal> (T_Current -273 T_Measured 27)
                              X_U3.Rx3 <X_U3.Rideal> (T_Current -273 T_Measured 27)
                                             X_U3.RX4 <X_U3.Rideal> (T_Current -273 T_Measured 27)

          R        2.300E+01      1.000E-03      1.000E-03  


               X_U3.R314 <X_U3.Rideal> (T_Current -273 T_Measured 27)
                              X_U3.RX5 <X_U3.Rideal> (T_Current -273 T_Measured 27)
                                             X_U3.R315 <X_U3.Rideal> (T_Current -273 T_Measured 27)

          R        1.000E+09      1.000E-03      1.000E+09  


               X_U2.Rz1 <X_U2.Rideal> (T_Current -273 T_Measured 27)
                              X_U2.Rz2 <X_U2.Rideal> (T_Current -273 T_Measured 27)
                                             X_U2.R3 <X_U2.Rideal> (T_Current -273 T_Measured 27)

          R        1.000E-06      1.000E-06      1.000E+03  


               X_U2.R1 <X_U2.Rideal> (T_Current -273 T_Measured 27)
                              X_U2.R2 <X_U2.Rideal> (T_Current -273 T_Measured 27)
                                             X_U2.RinCMP <X_U2.Rideal> (T_Current -273 T_Measured 27)

          R        1.000E+07      1.000E+07      7.600E+06  


               X_U2.RinCMN <X_U2.Rideal> (T_Current -273 T_Measured 27)
                              X_U2.RinDiff <X_U2.Rideal> (T_Current -273 T_Measured 27)
                                             X_U2.RInP <X_U2.Rideal> (T_Current -273 T_Measured 27)

          R        7.600E+06      4.000E+03      1.000E+03  


               X_U2.RX1 <X_U2.Rideal> (T_Current -273 T_Measured 27)
                              X_U2.RcmrrP <X_U2.Rideal> (T_Current -273 T_Measured 27)
                                             X_U2.RcmrrN <X_U2.Rideal> (T_Current -273 T_Measured 27)

          R        1.000E-03      1.000E+12      1.000E+12  


               X_U2.Rcmrr <X_U2.Rideal> (T_Current -273 T_Measured 27)
                              X_U2.RPD <X_U2.Rideal> (T_Current -273 T_Measured 27)
                                             X_U2.RDP1 <X_U2.Rideal> (T_Current -273 T_Measured 27)

          R        1.000E+03      2.860E+05      1.000E+03  


               X_U2.RF <X_U2.Rideal> (T_Current -273 T_Measured 27)
                              X_U2.R200 <X_U2.Rideal> (T_Current -273 T_Measured 27)
                                             X_U2.R210 <X_U2.Rideal> (T_Current -273 T_Measured 27)

          R        1.000E-03      1.000E+00      5.137E+06  


               X_U2.RX2 <X_U2.Rideal> (T_Current -273 T_Measured 27)
                              X_U2.R220 <X_U2.Rideal> (T_Current -273 T_Measured 27)
                                             X_U2.R230 <X_U2.Rideal> (T_Current -273 T_Measured 27)

          R        1.000E-03      1.000E+03      1.000E+03  


               X_U2.R240 <X_U2.Rideal> (T_Current -273 T_Measured 27)
                              X_U2.R245 <X_U2.Rideal> (T_Current -273 T_Measured 27)
                                             X_U2.R250 <X_U2.Rideal> (T_Current -273 T_Measured 27)

          R        1.000E+03      1.000E+03      1.000E+03  


               X_U2.R255 <X_U2.Rideal> (T_Current -273 T_Measured 27)
                              X_U2.R260 <X_U2.Rideal> (T_Current -273 T_Measured 27)
                                             X_U2.R265 <X_U2.Rideal> (T_Current -273 T_Measured 27)

          R        1.000E+03      1.000E+03      1.000E+03  


               X_U2.R270 <X_U2.Rideal> (T_Current -273 T_Measured 27)
                              X_U2.R281 <X_U2.Rideal> (T_Current -273 T_Measured 27)
                                             X_U2.R280 <X_U2.Rideal> (T_Current -273 T_Measured 27)

          R        1.000E+03      3.862E+01      1.000E+01  


               X_U2.R291 <X_U2.Rideal> (T_Current -273 T_Measured 27)
                              X_U2.R290 <X_U2.Rideal> (T_Current -273 T_Measured 27)
                                             X_U2.R300 <X_U2.Rideal> (T_Current -273 T_Measured 27)

          R        1.000E+06      1.000E-06      1.000E+03  


               X_U2.Rout <X_U2.Rideal> (T_Current -273 T_Measured 27)
                              X_U2.Rx3 <X_U2.Rideal> (T_Current -273 T_Measured 27)
                                             X_U2.RX4 <X_U2.Rideal> (T_Current -273 T_Measured 27)

          R        2.300E+01      1.000E-03      1.000E-03  


               X_U2.R314 <X_U2.Rideal> (T_Current -273 T_Measured 27)
                              X_U2.RX5 <X_U2.Rideal> (T_Current -273 T_Measured 27)
                                             X_U2.R315 <X_U2.Rideal> (T_Current -273 T_Measured 27)

          R        1.000E+09      1.000E-03      1.000E+09  



Model-Specific Temperatures During Sweep  Param value = 0.00011

 **** RESISTORS

               X_U3.Rz1 <X_U3.Rideal> (T_Current -273 T_Measured 27)
                              X_U3.Rz2 <X_U3.Rideal> (T_Current -273 T_Measured 27)
                                             X_U3.R3 <X_U3.Rideal> (T_Current -273 T_Measured 27)

          R        1.000E-06      1.000E-06      1.000E+03  


               X_U3.R1 <X_U3.Rideal> (T_Current -273 T_Measured 27)
                              X_U3.R2 <X_U3.Rideal> (T_Current -273 T_Measured 27)
                                             X_U3.RinCMP <X_U3.Rideal> (T_Current -273 T_Measured 27)

          R        1.000E+07      1.000E+07      7.600E+06  


               X_U3.RinCMN <X_U3.Rideal> (T_Current -273 T_Measured 27)
                              X_U3.RinDiff <X_U3.Rideal> (T_Current -273 T_Measured 27)
                                             X_U3.RInP <X_U3.Rideal> (T_Current -273 T_Measured 27)

          R        7.600E+06      4.000E+03      1.000E+03  


               X_U3.RX1 <X_U3.Rideal> (T_Current -273 T_Measured 27)
                              X_U3.RcmrrP <X_U3.Rideal> (T_Current -273 T_Measured 27)
                                             X_U3.RcmrrN <X_U3.Rideal> (T_Current -273 T_Measured 27)

          R        1.000E-03      1.000E+12      1.000E+12  


               X_U3.Rcmrr <X_U3.Rideal> (T_Current -273 T_Measured 27)
                              X_U3.RPD <X_U3.Rideal> (T_Current -273 T_Measured 27)
                                             X_U3.RDP1 <X_U3.Rideal> (T_Current -273 T_Measured 27)

          R        1.000E+03      2.860E+05      1.000E+03  


               X_U3.RF <X_U3.Rideal> (T_Current -273 T_Measured 27)
                              X_U3.R200 <X_U3.Rideal> (T_Current -273 T_Measured 27)
                                             X_U3.R210 <X_U3.Rideal> (T_Current -273 T_Measured 27)

          R        1.000E-03      1.000E+00      5.137E+06  


               X_U3.RX2 <X_U3.Rideal> (T_Current -273 T_Measured 27)
                              X_U3.R220 <X_U3.Rideal> (T_Current -273 T_Measured 27)
                                             X_U3.R230 <X_U3.Rideal> (T_Current -273 T_Measured 27)

          R        1.000E-03      1.000E+03      1.000E+03  


               X_U3.R240 <X_U3.Rideal> (T_Current -273 T_Measured 27)
                              X_U3.R245 <X_U3.Rideal> (T_Current -273 T_Measured 27)
                                             X_U3.R250 <X_U3.Rideal> (T_Current -273 T_Measured 27)

          R        1.000E+03      1.000E+03      1.000E+03  


               X_U3.R255 <X_U3.Rideal> (T_Current -273 T_Measured 27)
                              X_U3.R260 <X_U3.Rideal> (T_Current -273 T_Measured 27)
                                             X_U3.R265 <X_U3.Rideal> (T_Current -273 T_Measured 27)

          R        1.000E+03      1.000E+03      1.000E+03  


               X_U3.R270 <X_U3.Rideal> (T_Current -273 T_Measured 27)
                              X_U3.R281 <X_U3.Rideal> (T_Current -273 T_Measured 27)
                                             X_U3.R280 <X_U3.Rideal> (T_Current -273 T_Measured 27)

          R        1.000E+03      3.862E+01      1.000E+01  


               X_U3.R291 <X_U3.Rideal> (T_Current -273 T_Measured 27)
                              X_U3.R290 <X_U3.Rideal> (T_Current -273 T_Measured 27)
                                             X_U3.R300 <X_U3.Rideal> (T_Current -273 T_Measured 27)

          R        1.000E+06      1.000E-06      1.000E+03  


               X_U3.Rout <X_U3.Rideal> (T_Current -273 T_Measured 27)
                              X_U3.Rx3 <X_U3.Rideal> (T_Current -273 T_Measured 27)
                                             X_U3.RX4 <X_U3.Rideal> (T_Current -273 T_Measured 27)

          R        2.300E+01      1.000E-03      1.000E-03  


               X_U3.R314 <X_U3.Rideal> (T_Current -273 T_Measured 27)
                              X_U3.RX5 <X_U3.Rideal> (T_Current -273 T_Measured 27)
                                             X_U3.R315 <X_U3.Rideal> (T_Current -273 T_Measured 27)

          R        1.000E+09      1.000E-03      1.000E+09  


               X_U2.Rz1 <X_U2.Rideal> (T_Current -273 T_Measured 27)
                              X_U2.Rz2 <X_U2.Rideal> (T_Current -273 T_Measured 27)
                                             X_U2.R3 <X_U2.Rideal> (T_Current -273 T_Measured 27)

          R        1.000E-06      1.000E-06      1.000E+03  


               X_U2.R1 <X_U2.Rideal> (T_Current -273 T_Measured 27)
                              X_U2.R2 <X_U2.Rideal> (T_Current -273 T_Measured 27)
                                             X_U2.RinCMP <X_U2.Rideal> (T_Current -273 T_Measured 27)

          R        1.000E+07      1.000E+07      7.600E+06  


               X_U2.RinCMN <X_U2.Rideal> (T_Current -273 T_Measured 27)
                              X_U2.RinDiff <X_U2.Rideal> (T_Current -273 T_Measured 27)
                                             X_U2.RInP <X_U2.Rideal> (T_Current -273 T_Measured 27)

          R        7.600E+06      4.000E+03      1.000E+03  


               X_U2.RX1 <X_U2.Rideal> (T_Current -273 T_Measured 27)
                              X_U2.RcmrrP <X_U2.Rideal> (T_Current -273 T_Measured 27)
                                             X_U2.RcmrrN <X_U2.Rideal> (T_Current -273 T_Measured 27)

          R        1.000E-03      1.000E+12      1.000E+12  


               X_U2.Rcmrr <X_U2.Rideal> (T_Current -273 T_Measured 27)
                              X_U2.RPD <X_U2.Rideal> (T_Current -273 T_Measured 27)
                                             X_U2.RDP1 <X_U2.Rideal> (T_Current -273 T_Measured 27)

          R        1.000E+03      2.860E+05      1.000E+03  


               X_U2.RF <X_U2.Rideal> (T_Current -273 T_Measured 27)
                              X_U2.R200 <X_U2.Rideal> (T_Current -273 T_Measured 27)
                                             X_U2.R210 <X_U2.Rideal> (T_Current -273 T_Measured 27)

          R        1.000E-03      1.000E+00      5.137E+06  


               X_U2.RX2 <X_U2.Rideal> (T_Current -273 T_Measured 27)
                              X_U2.R220 <X_U2.Rideal> (T_Current -273 T_Measured 27)
                                             X_U2.R230 <X_U2.Rideal> (T_Current -273 T_Measured 27)

          R        1.000E-03      1.000E+03      1.000E+03  


               X_U2.R240 <X_U2.Rideal> (T_Current -273 T_Measured 27)
                              X_U2.R245 <X_U2.Rideal> (T_Current -273 T_Measured 27)
                                             X_U2.R250 <X_U2.Rideal> (T_Current -273 T_Measured 27)

          R        1.000E+03      1.000E+03      1.000E+03  


               X_U2.R255 <X_U2.Rideal> (T_Current -273 T_Measured 27)
                              X_U2.R260 <X_U2.Rideal> (T_Current -273 T_Measured 27)
                                             X_U2.R265 <X_U2.Rideal> (T_Current -273 T_Measured 27)

          R        1.000E+03      1.000E+03      1.000E+03  


               X_U2.R270 <X_U2.Rideal> (T_Current -273 T_Measured 27)
                              X_U2.R281 <X_U2.Rideal> (T_Current -273 T_Measured 27)
                                             X_U2.R280 <X_U2.Rideal> (T_Current -273 T_Measured 27)

          R        1.000E+03      3.862E+01      1.000E+01  


               X_U2.R291 <X_U2.Rideal> (T_Current -273 T_Measured 27)
                              X_U2.R290 <X_U2.Rideal> (T_Current -273 T_Measured 27)
                                             X_U2.R300 <X_U2.Rideal> (T_Current -273 T_Measured 27)

          R        1.000E+06      1.000E-06      1.000E+03  


               X_U2.Rout <X_U2.Rideal> (T_Current -273 T_Measured 27)
                              X_U2.Rx3 <X_U2.Rideal> (T_Current -273 T_Measured 27)
                                             X_U2.RX4 <X_U2.Rideal> (T_Current -273 T_Measured 27)

          R        2.300E+01      1.000E-03      1.000E-03  


               X_U2.R314 <X_U2.Rideal> (T_Current -273 T_Measured 27)
                              X_U2.RX5 <X_U2.Rideal> (T_Current -273 T_Measured 27)
                                             X_U2.R315 <X_U2.Rideal> (T_Current -273 T_Measured 27)

          R        1.000E+09      1.000E-03      1.000E+09  



Model-Specific Temperatures During Sweep  Param value = 0.00013

 **** RESISTORS

               X_U3.Rz1 <X_U3.Rideal> (T_Current -273 T_Measured 27)
                              X_U3.Rz2 <X_U3.Rideal> (T_Current -273 T_Measured 27)
                                             X_U3.R3 <X_U3.Rideal> (T_Current -273 T_Measured 27)

          R        1.000E-06      1.000E-06      1.000E+03  


               X_U3.R1 <X_U3.Rideal> (T_Current -273 T_Measured 27)
                              X_U3.R2 <X_U3.Rideal> (T_Current -273 T_Measured 27)
                                             X_U3.RinCMP <X_U3.Rideal> (T_Current -273 T_Measured 27)

          R        1.000E+07      1.000E+07      7.600E+06  


               X_U3.RinCMN <X_U3.Rideal> (T_Current -273 T_Measured 27)
                              X_U3.RinDiff <X_U3.Rideal> (T_Current -273 T_Measured 27)
                                             X_U3.RInP <X_U3.Rideal> (T_Current -273 T_Measured 27)

          R        7.600E+06      4.000E+03      1.000E+03  


               X_U3.RX1 <X_U3.Rideal> (T_Current -273 T_Measured 27)
                              X_U3.RcmrrP <X_U3.Rideal> (T_Current -273 T_Measured 27)
                                             X_U3.RcmrrN <X_U3.Rideal> (T_Current -273 T_Measured 27)

          R        1.000E-03      1.000E+12      1.000E+12  


               X_U3.Rcmrr <X_U3.Rideal> (T_Current -273 T_Measured 27)
                              X_U3.RPD <X_U3.Rideal> (T_Current -273 T_Measured 27)
                                             X_U3.RDP1 <X_U3.Rideal> (T_Current -273 T_Measured 27)

          R        1.000E+03      2.860E+05      1.000E+03  


               X_U3.RF <X_U3.Rideal> (T_Current -273 T_Measured 27)
                              X_U3.R200 <X_U3.Rideal> (T_Current -273 T_Measured 27)
                                             X_U3.R210 <X_U3.Rideal> (T_Current -273 T_Measured 27)

          R        1.000E-03      1.000E+00      5.137E+06  


               X_U3.RX2 <X_U3.Rideal> (T_Current -273 T_Measured 27)
                              X_U3.R220 <X_U3.Rideal> (T_Current -273 T_Measured 27)
                                             X_U3.R230 <X_U3.Rideal> (T_Current -273 T_Measured 27)

          R        1.000E-03      1.000E+03      1.000E+03  


               X_U3.R240 <X_U3.Rideal> (T_Current -273 T_Measured 27)
                              X_U3.R245 <X_U3.Rideal> (T_Current -273 T_Measured 27)
                                             X_U3.R250 <X_U3.Rideal> (T_Current -273 T_Measured 27)

          R        1.000E+03      1.000E+03      1.000E+03  


               X_U3.R255 <X_U3.Rideal> (T_Current -273 T_Measured 27)
                              X_U3.R260 <X_U3.Rideal> (T_Current -273 T_Measured 27)
                                             X_U3.R265 <X_U3.Rideal> (T_Current -273 T_Measured 27)

          R        1.000E+03      1.000E+03      1.000E+03  


               X_U3.R270 <X_U3.Rideal> (T_Current -273 T_Measured 27)
                              X_U3.R281 <X_U3.Rideal> (T_Current -273 T_Measured 27)
                                             X_U3.R280 <X_U3.Rideal> (T_Current -273 T_Measured 27)

          R        1.000E+03      3.862E+01      1.000E+01  


               X_U3.R291 <X_U3.Rideal> (T_Current -273 T_Measured 27)
                              X_U3.R290 <X_U3.Rideal> (T_Current -273 T_Measured 27)
                                             X_U3.R300 <X_U3.Rideal> (T_Current -273 T_Measured 27)

          R        1.000E+06      1.000E-06      1.000E+03  


               X_U3.Rout <X_U3.Rideal> (T_Current -273 T_Measured 27)
                              X_U3.Rx3 <X_U3.Rideal> (T_Current -273 T_Measured 27)
                                             X_U3.RX4 <X_U3.Rideal> (T_Current -273 T_Measured 27)

          R        2.300E+01      1.000E-03      1.000E-03  


               X_U3.R314 <X_U3.Rideal> (T_Current -273 T_Measured 27)
                              X_U3.RX5 <X_U3.Rideal> (T_Current -273 T_Measured 27)
                                             X_U3.R315 <X_U3.Rideal> (T_Current -273 T_Measured 27)

          R        1.000E+09      1.000E-03      1.000E+09  


               X_U2.Rz1 <X_U2.Rideal> (T_Current -273 T_Measured 27)
                              X_U2.Rz2 <X_U2.Rideal> (T_Current -273 T_Measured 27)
                                             X_U2.R3 <X_U2.Rideal> (T_Current -273 T_Measured 27)

          R        1.000E-06      1.000E-06      1.000E+03  


               X_U2.R1 <X_U2.Rideal> (T_Current -273 T_Measured 27)
                              X_U2.R2 <X_U2.Rideal> (T_Current -273 T_Measured 27)
                                             X_U2.RinCMP <X_U2.Rideal> (T_Current -273 T_Measured 27)

          R        1.000E+07      1.000E+07      7.600E+06  


               X_U2.RinCMN <X_U2.Rideal> (T_Current -273 T_Measured 27)
                              X_U2.RinDiff <X_U2.Rideal> (T_Current -273 T_Measured 27)
                                             X_U2.RInP <X_U2.Rideal> (T_Current -273 T_Measured 27)

          R        7.600E+06      4.000E+03      1.000E+03  


               X_U2.RX1 <X_U2.Rideal> (T_Current -273 T_Measured 27)
                              X_U2.RcmrrP <X_U2.Rideal> (T_Current -273 T_Measured 27)
                                             X_U2.RcmrrN <X_U2.Rideal> (T_Current -273 T_Measured 27)

          R        1.000E-03      1.000E+12      1.000E+12  


               X_U2.Rcmrr <X_U2.Rideal> (T_Current -273 T_Measured 27)
                              X_U2.RPD <X_U2.Rideal> (T_Current -273 T_Measured 27)
                                             X_U2.RDP1 <X_U2.Rideal> (T_Current -273 T_Measured 27)

          R        1.000E+03      2.860E+05      1.000E+03  


               X_U2.RF <X_U2.Rideal> (T_Current -273 T_Measured 27)
                              X_U2.R200 <X_U2.Rideal> (T_Current -273 T_Measured 27)
                                             X_U2.R210 <X_U2.Rideal> (T_Current -273 T_Measured 27)

          R        1.000E-03      1.000E+00      5.137E+06  


               X_U2.RX2 <X_U2.Rideal> (T_Current -273 T_Measured 27)
                              X_U2.R220 <X_U2.Rideal> (T_Current -273 T_Measured 27)
                                             X_U2.R230 <X_U2.Rideal> (T_Current -273 T_Measured 27)

          R        1.000E-03      1.000E+03      1.000E+03  


               X_U2.R240 <X_U2.Rideal> (T_Current -273 T_Measured 27)
                              X_U2.R245 <X_U2.Rideal> (T_Current -273 T_Measured 27)
                                             X_U2.R250 <X_U2.Rideal> (T_Current -273 T_Measured 27)

          R        1.000E+03      1.000E+03      1.000E+03  


               X_U2.R255 <X_U2.Rideal> (T_Current -273 T_Measured 27)
                              X_U2.R260 <X_U2.Rideal> (T_Current -273 T_Measured 27)
                                             X_U2.R265 <X_U2.Rideal> (T_Current -273 T_Measured 27)

          R        1.000E+03      1.000E+03      1.000E+03  


               X_U2.R270 <X_U2.Rideal> (T_Current -273 T_Measured 27)
                              X_U2.R281 <X_U2.Rideal> (T_Current -273 T_Measured 27)
                                             X_U2.R280 <X_U2.Rideal> (T_Current -273 T_Measured 27)

          R        1.000E+03      3.862E+01      1.000E+01  


               X_U2.R291 <X_U2.Rideal> (T_Current -273 T_Measured 27)
                              X_U2.R290 <X_U2.Rideal> (T_Current -273 T_Measured 27)
                                             X_U2.R300 <X_U2.Rideal> (T_Current -273 T_Measured 27)

          R        1.000E+06      1.000E-06      1.000E+03  


               X_U2.Rout <X_U2.Rideal> (T_Current -273 T_Measured 27)
                              X_U2.Rx3 <X_U2.Rideal> (T_Current -273 T_Measured 27)
                                             X_U2.RX4 <X_U2.Rideal> (T_Current -273 T_Measured 27)

          R        2.300E+01      1.000E-03      1.000E-03  


               X_U2.R314 <X_U2.Rideal> (T_Current -273 T_Measured 27)
                              X_U2.RX5 <X_U2.Rideal> (T_Current -273 T_Measured 27)
                                             X_U2.R315 <X_U2.Rideal> (T_Current -273 T_Measured 27)

          R        1.000E+09      1.000E-03      1.000E+09  



Model-Specific Temperatures During Sweep  Param value = 0.00015

 **** RESISTORS

               X_U3.Rz1 <X_U3.Rideal> (T_Current -273 T_Measured 27)
                              X_U3.Rz2 <X_U3.Rideal> (T_Current -273 T_Measured 27)
                                             X_U3.R3 <X_U3.Rideal> (T_Current -273 T_Measured 27)

          R        1.000E-06      1.000E-06      1.000E+03  


               X_U3.R1 <X_U3.Rideal> (T_Current -273 T_Measured 27)
                              X_U3.R2 <X_U3.Rideal> (T_Current -273 T_Measured 27)
                                             X_U3.RinCMP <X_U3.Rideal> (T_Current -273 T_Measured 27)

          R        1.000E+07      1.000E+07      7.600E+06  


               X_U3.RinCMN <X_U3.Rideal> (T_Current -273 T_Measured 27)
                              X_U3.RinDiff <X_U3.Rideal> (T_Current -273 T_Measured 27)
                                             X_U3.RInP <X_U3.Rideal> (T_Current -273 T_Measured 27)

          R        7.600E+06      4.000E+03      1.000E+03  


               X_U3.RX1 <X_U3.Rideal> (T_Current -273 T_Measured 27)
                              X_U3.RcmrrP <X_U3.Rideal> (T_Current -273 T_Measured 27)
                                             X_U3.RcmrrN <X_U3.Rideal> (T_Current -273 T_Measured 27)

          R        1.000E-03      1.000E+12      1.000E+12  


               X_U3.Rcmrr <X_U3.Rideal> (T_Current -273 T_Measured 27)
                              X_U3.RPD <X_U3.Rideal> (T_Current -273 T_Measured 27)
                                             X_U3.RDP1 <X_U3.Rideal> (T_Current -273 T_Measured 27)

          R        1.000E+03      2.860E+05      1.000E+03  


               X_U3.RF <X_U3.Rideal> (T_Current -273 T_Measured 27)
                              X_U3.R200 <X_U3.Rideal> (T_Current -273 T_Measured 27)
                                             X_U3.R210 <X_U3.Rideal> (T_Current -273 T_Measured 27)

          R        1.000E-03      1.000E+00      5.137E+06  


               X_U3.RX2 <X_U3.Rideal> (T_Current -273 T_Measured 27)
                              X_U3.R220 <X_U3.Rideal> (T_Current -273 T_Measured 27)
                                             X_U3.R230 <X_U3.Rideal> (T_Current -273 T_Measured 27)

          R        1.000E-03      1.000E+03      1.000E+03  


               X_U3.R240 <X_U3.Rideal> (T_Current -273 T_Measured 27)
                              X_U3.R245 <X_U3.Rideal> (T_Current -273 T_Measured 27)
                                             X_U3.R250 <X_U3.Rideal> (T_Current -273 T_Measured 27)

          R        1.000E+03      1.000E+03      1.000E+03  


               X_U3.R255 <X_U3.Rideal> (T_Current -273 T_Measured 27)
                              X_U3.R260 <X_U3.Rideal> (T_Current -273 T_Measured 27)
                                             X_U3.R265 <X_U3.Rideal> (T_Current -273 T_Measured 27)

          R        1.000E+03      1.000E+03      1.000E+03  


               X_U3.R270 <X_U3.Rideal> (T_Current -273 T_Measured 27)
                              X_U3.R281 <X_U3.Rideal> (T_Current -273 T_Measured 27)
                                             X_U3.R280 <X_U3.Rideal> (T_Current -273 T_Measured 27)

          R        1.000E+03      3.862E+01      1.000E+01  


               X_U3.R291 <X_U3.Rideal> (T_Current -273 T_Measured 27)
                              X_U3.R290 <X_U3.Rideal> (T_Current -273 T_Measured 27)
                                             X_U3.R300 <X_U3.Rideal> (T_Current -273 T_Measured 27)

          R        1.000E+06      1.000E-06      1.000E+03  


               X_U3.Rout <X_U3.Rideal> (T_Current -273 T_Measured 27)
                              X_U3.Rx3 <X_U3.Rideal> (T_Current -273 T_Measured 27)
                                             X_U3.RX4 <X_U3.Rideal> (T_Current -273 T_Measured 27)

          R        2.300E+01      1.000E-03      1.000E-03  


               X_U3.R314 <X_U3.Rideal> (T_Current -273 T_Measured 27)
                              X_U3.RX5 <X_U3.Rideal> (T_Current -273 T_Measured 27)
                                             X_U3.R315 <X_U3.Rideal> (T_Current -273 T_Measured 27)

          R        1.000E+09      1.000E-03      1.000E+09  


               X_U2.Rz1 <X_U2.Rideal> (T_Current -273 T_Measured 27)
                              X_U2.Rz2 <X_U2.Rideal> (T_Current -273 T_Measured 27)
                                             X_U2.R3 <X_U2.Rideal> (T_Current -273 T_Measured 27)

          R        1.000E-06      1.000E-06      1.000E+03  


               X_U2.R1 <X_U2.Rideal> (T_Current -273 T_Measured 27)
                              X_U2.R2 <X_U2.Rideal> (T_Current -273 T_Measured 27)
                                             X_U2.RinCMP <X_U2.Rideal> (T_Current -273 T_Measured 27)

          R        1.000E+07      1.000E+07      7.600E+06  


               X_U2.RinCMN <X_U2.Rideal> (T_Current -273 T_Measured 27)
                              X_U2.RinDiff <X_U2.Rideal> (T_Current -273 T_Measured 27)
                                             X_U2.RInP <X_U2.Rideal> (T_Current -273 T_Measured 27)

          R        7.600E+06      4.000E+03      1.000E+03  


               X_U2.RX1 <X_U2.Rideal> (T_Current -273 T_Measured 27)
                              X_U2.RcmrrP <X_U2.Rideal> (T_Current -273 T_Measured 27)
                                             X_U2.RcmrrN <X_U2.Rideal> (T_Current -273 T_Measured 27)

          R        1.000E-03      1.000E+12      1.000E+12  


               X_U2.Rcmrr <X_U2.Rideal> (T_Current -273 T_Measured 27)
                              X_U2.RPD <X_U2.Rideal> (T_Current -273 T_Measured 27)
                                             X_U2.RDP1 <X_U2.Rideal> (T_Current -273 T_Measured 27)

          R        1.000E+03      2.860E+05      1.000E+03  


               X_U2.RF <X_U2.Rideal> (T_Current -273 T_Measured 27)
                              X_U2.R200 <X_U2.Rideal> (T_Current -273 T_Measured 27)
                                             X_U2.R210 <X_U2.Rideal> (T_Current -273 T_Measured 27)

          R        1.000E-03      1.000E+00      5.137E+06  


               X_U2.RX2 <X_U2.Rideal> (T_Current -273 T_Measured 27)
                              X_U2.R220 <X_U2.Rideal> (T_Current -273 T_Measured 27)
                                             X_U2.R230 <X_U2.Rideal> (T_Current -273 T_Measured 27)

          R        1.000E-03      1.000E+03      1.000E+03  


               X_U2.R240 <X_U2.Rideal> (T_Current -273 T_Measured 27)
                              X_U2.R245 <X_U2.Rideal> (T_Current -273 T_Measured 27)
                                             X_U2.R250 <X_U2.Rideal> (T_Current -273 T_Measured 27)

          R        1.000E+03      1.000E+03      1.000E+03  


               X_U2.R255 <X_U2.Rideal> (T_Current -273 T_Measured 27)
                              X_U2.R260 <X_U2.Rideal> (T_Current -273 T_Measured 27)
                                             X_U2.R265 <X_U2.Rideal> (T_Current -273 T_Measured 27)

          R        1.000E+03      1.000E+03      1.000E+03  


               X_U2.R270 <X_U2.Rideal> (T_Current -273 T_Measured 27)
                              X_U2.R281 <X_U2.Rideal> (T_Current -273 T_Measured 27)
                                             X_U2.R280 <X_U2.Rideal> (T_Current -273 T_Measured 27)

          R        1.000E+03      3.862E+01      1.000E+01  


               X_U2.R291 <X_U2.Rideal> (T_Current -273 T_Measured 27)
                              X_U2.R290 <X_U2.Rideal> (T_Current -273 T_Measured 27)
                                             X_U2.R300 <X_U2.Rideal> (T_Current -273 T_Measured 27)

          R        1.000E+06      1.000E-06      1.000E+03  


               X_U2.Rout <X_U2.Rideal> (T_Current -273 T_Measured 27)
                              X_U2.Rx3 <X_U2.Rideal> (T_Current -273 T_Measured 27)
                                             X_U2.RX4 <X_U2.Rideal> (T_Current -273 T_Measured 27)

          R        2.300E+01      1.000E-03      1.000E-03  


               X_U2.R314 <X_U2.Rideal> (T_Current -273 T_Measured 27)
                              X_U2.RX5 <X_U2.Rideal> (T_Current -273 T_Measured 27)
                                             X_U2.R315 <X_U2.Rideal> (T_Current -273 T_Measured 27)

          R        1.000E+09      1.000E-03      1.000E+09  



Model-Specific Temperatures During Sweep  Param value = 0.00017

 **** RESISTORS

               X_U3.Rz1 <X_U3.Rideal> (T_Current -273 T_Measured 27)
                              X_U3.Rz2 <X_U3.Rideal> (T_Current -273 T_Measured 27)
                                             X_U3.R3 <X_U3.Rideal> (T_Current -273 T_Measured 27)

          R        1.000E-06      1.000E-06      1.000E+03  


               X_U3.R1 <X_U3.Rideal> (T_Current -273 T_Measured 27)
                              X_U3.R2 <X_U3.Rideal> (T_Current -273 T_Measured 27)
                                             X_U3.RinCMP <X_U3.Rideal> (T_Current -273 T_Measured 27)

          R        1.000E+07      1.000E+07      7.600E+06  


               X_U3.RinCMN <X_U3.Rideal> (T_Current -273 T_Measured 27)
                              X_U3.RinDiff <X_U3.Rideal> (T_Current -273 T_Measured 27)
                                             X_U3.RInP <X_U3.Rideal> (T_Current -273 T_Measured 27)

          R        7.600E+06      4.000E+03      1.000E+03  


               X_U3.RX1 <X_U3.Rideal> (T_Current -273 T_Measured 27)
                              X_U3.RcmrrP <X_U3.Rideal> (T_Current -273 T_Measured 27)
                                             X_U3.RcmrrN <X_U3.Rideal> (T_Current -273 T_Measured 27)

          R        1.000E-03      1.000E+12      1.000E+12  


               X_U3.Rcmrr <X_U3.Rideal> (T_Current -273 T_Measured 27)
                              X_U3.RPD <X_U3.Rideal> (T_Current -273 T_Measured 27)
                                             X_U3.RDP1 <X_U3.Rideal> (T_Current -273 T_Measured 27)

          R        1.000E+03      2.860E+05      1.000E+03  


               X_U3.RF <X_U3.Rideal> (T_Current -273 T_Measured 27)
                              X_U3.R200 <X_U3.Rideal> (T_Current -273 T_Measured 27)
                                             X_U3.R210 <X_U3.Rideal> (T_Current -273 T_Measured 27)

          R        1.000E-03      1.000E+00      5.137E+06  


               X_U3.RX2 <X_U3.Rideal> (T_Current -273 T_Measured 27)
                              X_U3.R220 <X_U3.Rideal> (T_Current -273 T_Measured 27)
                                             X_U3.R230 <X_U3.Rideal> (T_Current -273 T_Measured 27)

          R        1.000E-03      1.000E+03      1.000E+03  


               X_U3.R240 <X_U3.Rideal> (T_Current -273 T_Measured 27)
                              X_U3.R245 <X_U3.Rideal> (T_Current -273 T_Measured 27)
                                             X_U3.R250 <X_U3.Rideal> (T_Current -273 T_Measured 27)

          R        1.000E+03      1.000E+03      1.000E+03  


               X_U3.R255 <X_U3.Rideal> (T_Current -273 T_Measured 27)
                              X_U3.R260 <X_U3.Rideal> (T_Current -273 T_Measured 27)
                                             X_U3.R265 <X_U3.Rideal> (T_Current -273 T_Measured 27)

          R        1.000E+03      1.000E+03      1.000E+03  


               X_U3.R270 <X_U3.Rideal> (T_Current -273 T_Measured 27)
                              X_U3.R281 <X_U3.Rideal> (T_Current -273 T_Measured 27)
                                             X_U3.R280 <X_U3.Rideal> (T_Current -273 T_Measured 27)

          R        1.000E+03      3.862E+01      1.000E+01  


               X_U3.R291 <X_U3.Rideal> (T_Current -273 T_Measured 27)
                              X_U3.R290 <X_U3.Rideal> (T_Current -273 T_Measured 27)
                                             X_U3.R300 <X_U3.Rideal> (T_Current -273 T_Measured 27)

          R        1.000E+06      1.000E-06      1.000E+03  


               X_U3.Rout <X_U3.Rideal> (T_Current -273 T_Measured 27)
                              X_U3.Rx3 <X_U3.Rideal> (T_Current -273 T_Measured 27)
                                             X_U3.RX4 <X_U3.Rideal> (T_Current -273 T_Measured 27)

          R        2.300E+01      1.000E-03      1.000E-03  


               X_U3.R314 <X_U3.Rideal> (T_Current -273 T_Measured 27)
                              X_U3.RX5 <X_U3.Rideal> (T_Current -273 T_Measured 27)
                                             X_U3.R315 <X_U3.Rideal> (T_Current -273 T_Measured 27)

          R        1.000E+09      1.000E-03      1.000E+09  


               X_U2.Rz1 <X_U2.Rideal> (T_Current -273 T_Measured 27)
                              X_U2.Rz2 <X_U2.Rideal> (T_Current -273 T_Measured 27)
                                             X_U2.R3 <X_U2.Rideal> (T_Current -273 T_Measured 27)

          R        1.000E-06      1.000E-06      1.000E+03  


               X_U2.R1 <X_U2.Rideal> (T_Current -273 T_Measured 27)
                              X_U2.R2 <X_U2.Rideal> (T_Current -273 T_Measured 27)
                                             X_U2.RinCMP <X_U2.Rideal> (T_Current -273 T_Measured 27)

          R        1.000E+07      1.000E+07      7.600E+06  


               X_U2.RinCMN <X_U2.Rideal> (T_Current -273 T_Measured 27)
                              X_U2.RinDiff <X_U2.Rideal> (T_Current -273 T_Measured 27)
                                             X_U2.RInP <X_U2.Rideal> (T_Current -273 T_Measured 27)

          R        7.600E+06      4.000E+03      1.000E+03  


               X_U2.RX1 <X_U2.Rideal> (T_Current -273 T_Measured 27)
                              X_U2.RcmrrP <X_U2.Rideal> (T_Current -273 T_Measured 27)
                                             X_U2.RcmrrN <X_U2.Rideal> (T_Current -273 T_Measured 27)

          R        1.000E-03      1.000E+12      1.000E+12  


               X_U2.Rcmrr <X_U2.Rideal> (T_Current -273 T_Measured 27)
                              X_U2.RPD <X_U2.Rideal> (T_Current -273 T_Measured 27)
                                             X_U2.RDP1 <X_U2.Rideal> (T_Current -273 T_Measured 27)

          R        1.000E+03      2.860E+05      1.000E+03  


               X_U2.RF <X_U2.Rideal> (T_Current -273 T_Measured 27)
                              X_U2.R200 <X_U2.Rideal> (T_Current -273 T_Measured 27)
                                             X_U2.R210 <X_U2.Rideal> (T_Current -273 T_Measured 27)

          R        1.000E-03      1.000E+00      5.137E+06  


               X_U2.RX2 <X_U2.Rideal> (T_Current -273 T_Measured 27)
                              X_U2.R220 <X_U2.Rideal> (T_Current -273 T_Measured 27)
                                             X_U2.R230 <X_U2.Rideal> (T_Current -273 T_Measured 27)

          R        1.000E-03      1.000E+03      1.000E+03  


               X_U2.R240 <X_U2.Rideal> (T_Current -273 T_Measured 27)
                              X_U2.R245 <X_U2.Rideal> (T_Current -273 T_Measured 27)
                                             X_U2.R250 <X_U2.Rideal> (T_Current -273 T_Measured 27)

          R        1.000E+03      1.000E+03      1.000E+03  


               X_U2.R255 <X_U2.Rideal> (T_Current -273 T_Measured 27)
                              X_U2.R260 <X_U2.Rideal> (T_Current -273 T_Measured 27)
                                             X_U2.R265 <X_U2.Rideal> (T_Current -273 T_Measured 27)

          R        1.000E+03      1.000E+03      1.000E+03  


               X_U2.R270 <X_U2.Rideal> (T_Current -273 T_Measured 27)
                              X_U2.R281 <X_U2.Rideal> (T_Current -273 T_Measured 27)
                                             X_U2.R280 <X_U2.Rideal> (T_Current -273 T_Measured 27)

          R        1.000E+03      3.862E+01      1.000E+01  


               X_U2.R291 <X_U2.Rideal> (T_Current -273 T_Measured 27)
                              X_U2.R290 <X_U2.Rideal> (T_Current -273 T_Measured 27)
                                             X_U2.R300 <X_U2.Rideal> (T_Current -273 T_Measured 27)

          R        1.000E+06      1.000E-06      1.000E+03  


               X_U2.Rout <X_U2.Rideal> (T_Current -273 T_Measured 27)
                              X_U2.Rx3 <X_U2.Rideal> (T_Current -273 T_Measured 27)
                                             X_U2.RX4 <X_U2.Rideal> (T_Current -273 T_Measured 27)

          R        2.300E+01      1.000E-03      1.000E-03  


               X_U2.R314 <X_U2.Rideal> (T_Current -273 T_Measured 27)
                              X_U2.RX5 <X_U2.Rideal> (T_Current -273 T_Measured 27)
                                             X_U2.R315 <X_U2.Rideal> (T_Current -273 T_Measured 27)

          R        1.000E+09      1.000E-03      1.000E+09  



Model-Specific Temperatures During Sweep  Param value = 0.00019

 **** RESISTORS

               X_U3.Rz1 <X_U3.Rideal> (T_Current -273 T_Measured 27)
                              X_U3.Rz2 <X_U3.Rideal> (T_Current -273 T_Measured 27)
                                             X_U3.R3 <X_U3.Rideal> (T_Current -273 T_Measured 27)

          R        1.000E-06      1.000E-06      1.000E+03  


               X_U3.R1 <X_U3.Rideal> (T_Current -273 T_Measured 27)
                              X_U3.R2 <X_U3.Rideal> (T_Current -273 T_Measured 27)
[...]
                              X_U2.RPD <X_U2.Rideal> (T_Current -273 T_Measured 27)
                                             X_U2.RDP1 <X_U2.Rideal> (T_Current -273 T_Measured 27)

          R        1.000E+03      2.860E+05      1.000E+03  


               X_U2.RF <X_U2.Rideal> (T_Current -273 T_Measured 27)
                              X_U2.R200 <X_U2.Rideal> (T_Current -273 T_Measured 27)
                                             X_U2.R210 <X_U2.Rideal> (T_Current -273 T_Measured 27)

          R        1.000E-03      1.000E+00      5.137E+06  


               X_U2.RX2 <X_U2.Rideal> (T_Current -273 T_Measured 27)
                              X_U2.R220 <X_U2.Rideal> (T_Current -273 T_Measured 27)
                                             X_U2.R230 <X_U2.Rideal> (T_Current -273 T_Measured 27)

          R        1.000E-03      1.000E+03      1.000E+03  


               X_U2.R240 <X_U2.Rideal> (T_Current -273 T_Measured 27)
                              X_U2.R245 <X_U2.Rideal> (T_Current -273 T_Measured 27)
                                             X_U2.R250 <X_U2.Rideal> (T_Current -273 T_Measured 27)

          R        1.000E+03      1.000E+03      1.000E+03  


               X_U2.R255 <X_U2.Rideal> (T_Current -273 T_Measured 27)
                              X_U2.R260 <X_U2.Rideal> (T_Current -273 T_Measured 27)
                                             X_U2.R265 <X_U2.Rideal> (T_Current -273 T_Measured 27)

          R        1.000E+03      1.000E+03      1.000E+03  


               X_U2.R270 <X_U2.Rideal> (T_Current -273 T_Measured 27)
                              X_U2.R281 <X_U2.Rideal> (T_Current -273 T_Measured 27)
                                             X_U2.R280 <X_U2.Rideal> (T_Current -273 T_Measured 27)

          R        1.000E+03      3.862E+01      1.000E+01  


               X_U2.R291 <X_U2.Rideal> (T_Current -273 T_Measured 27)
                              X_U2.R290 <X_U2.Rideal> (T_Current -273 T_Measured 27)
                                             X_U2.R300 <X_U2.Rideal> (T_Current -273 T_Measured 27)

          R        1.000E+06      1.000E-06      1.000E+03  


               X_U2.Rout <X_U2.Rideal> (T_Current -273 T_Measured 27)
                              X_U2.Rx3 <X_U2.Rideal> (T_Current -273 T_Measured 27)
                                             X_U2.RX4 <X_U2.Rideal> (T_Current -273 T_Measured 27)

          R        2.300E+01      1.000E-03      1.000E-03  


               X_U2.R314 <X_U2.Rideal> (T_Current -273 T_Measured 27)
                              X_U2.RX5 <X_U2.Rideal> (T_Current -273 T_Measured 27)
                                             X_U2.R315 <X_U2.Rideal> (T_Current -273 T_Measured 27)

          R        1.000E+09      1.000E-03      1.000E+09  



Model-Specific Temperatures During Sweep  Param value = 0.00199

 **** RESISTORS

               X_U3.Rz1 <X_U3.Rideal> (T_Current -273 T_Measured 27)
                              X_U3.Rz2 <X_U3.Rideal> (T_Current -273 T_Measured 27)
                                             X_U3.R3 <X_U3.Rideal> (T_Current -273 T_Measured 27)

          R        1.000E-06      1.000E-06      1.000E+03  


               X_U3.R1 <X_U3.Rideal> (T_Current -273 T_Measured 27)
                              X_U3.R2 <X_U3.Rideal> (T_Current -273 T_Measured 27)
                                             X_U3.RinCMP <X_U3.Rideal> (T_Current -273 T_Measured 27)

          R        1.000E+07      1.000E+07      7.600E+06  


               X_U3.RinCMN <X_U3.Rideal> (T_Current -273 T_Measured 27)
                              X_U3.RinDiff <X_U3.Rideal> (T_Current -273 T_Measured 27)
                                             X_U3.RInP <X_U3.Rideal> (T_Current -273 T_Measured 27)

          R        7.600E+06      4.000E+03      1.000E+03  


               X_U3.RX1 <X_U3.Rideal> (T_Current -273 T_Measured 27)
                              X_U3.RcmrrP <X_U3.Rideal> (T_Current -273 T_Measured 27)
                                             X_U3.RcmrrN <X_U3.Rideal> (T_Current -273 T_Measured 27)

          R        1.000E-03      1.000E+12      1.000E+12  


               X_U3.Rcmrr <X_U3.Rideal> (T_Current -273 T_Measured 27)
                              X_U3.RPD <X_U3.Rideal> (T_Current -273 T_Measured 27)
                                             X_U3.RDP1 <X_U3.Rideal> (T_Current -273 T_Measured 27)

          R        1.000E+03      2.860E+05      1.000E+03  


               X_U3.RF <X_U3.Rideal> (T_Current -273 T_Measured 27)
                              X_U3.R200 <X_U3.Rideal> (T_Current -273 T_Measured 27)
                                             X_U3.R210 <X_U3.Rideal> (T_Current -273 T_Measured 27)

          R        1.000E-03      1.000E+00      5.137E+06  


               X_U3.RX2 <X_U3.Rideal> (T_Current -273 T_Measured 27)
                              X_U3.R220 <X_U3.Rideal> (T_Current -273 T_Measured 27)
                                             X_U3.R230 <X_U3.Rideal> (T_Current -273 T_Measured 27)

          R        1.000E-03      1.000E+03      1.000E+03  


               X_U3.R240 <X_U3.Rideal> (T_Current -273 T_Measured 27)
                              X_U3.R245 <X_U3.Rideal> (T_Current -273 T_Measured 27)
                                             X_U3.R250 <X_U3.Rideal> (T_Current -273 T_Measured 27)

          R        1.000E+03      1.000E+03      1.000E+03  


               X_U3.R255 <X_U3.Rideal> (T_Current -273 T_Measured 27)
                              X_U3.R260 <X_U3.Rideal> (T_Current -273 T_Measured 27)
                                             X_U3.R265 <X_U3.Rideal> (T_Current -273 T_Measured 27)

          R        1.000E+03      1.000E+03      1.000E+03  


               X_U3.R270 <X_U3.Rideal> (T_Current -273 T_Measured 27)
                              X_U3.R281 <X_U3.Rideal> (T_Current -273 T_Measured 27)
                                             X_U3.R280 <X_U3.Rideal> (T_Current -273 T_Measured 27)

          R        1.000E+03      3.862E+01      1.000E+01  


               X_U3.R291 <X_U3.Rideal> (T_Current -273 T_Measured 27)
                              X_U3.R290 <X_U3.Rideal> (T_Current -273 T_Measured 27)
                                             X_U3.R300 <X_U3.Rideal> (T_Current -273 T_Measured 27)

          R        1.000E+06      1.000E-06      1.000E+03  


               X_U3.Rout <X_U3.Rideal> (T_Current -273 T_Measured 27)
                              X_U3.Rx3 <X_U3.Rideal> (T_Current -273 T_Measured 27)
                                             X_U3.RX4 <X_U3.Rideal> (T_Current -273 T_Measured 27)

          R        2.300E+01      1.000E-03      1.000E-03  


               X_U3.R314 <X_U3.Rideal> (T_Current -273 T_Measured 27)
                              X_U3.RX5 <X_U3.Rideal> (T_Current -273 T_Measured 27)
                                             X_U3.R315 <X_U3.Rideal> (T_Current -273 T_Measured 27)

          R        1.000E+09      1.000E-03      1.000E+09  


               X_U2.Rz1 <X_U2.Rideal> (T_Current -273 T_Measured 27)
                              X_U2.Rz2 <X_U2.Rideal> (T_Current -273 T_Measured 27)
                                             X_U2.R3 <X_U2.Rideal> (T_Current -273 T_Measured 27)

          R        1.000E-06      1.000E-06      1.000E+03  


               X_U2.R1 <X_U2.Rideal> (T_Current -273 T_Measured 27)
                              X_U2.R2 <X_U2.Rideal> (T_Current -273 T_Measured 27)
                                             X_U2.RinCMP <X_U2.Rideal> (T_Current -273 T_Measured 27)

          R        1.000E+07      1.000E+07      7.600E+06  


               X_U2.RinCMN <X_U2.Rideal> (T_Current -273 T_Measured 27)
                              X_U2.RinDiff <X_U2.Rideal> (T_Current -273 T_Measured 27)
                                             X_U2.RInP <X_U2.Rideal> (T_Current -273 T_Measured 27)

          R        7.600E+06      4.000E+03      1.000E+03  


               X_U2.RX1 <X_U2.Rideal> (T_Current -273 T_Measured 27)
                              X_U2.RcmrrP <X_U2.Rideal> (T_Current -273 T_Measured 27)
                                             X_U2.RcmrrN <X_U2.Rideal> (T_Current -273 T_Measured 27)

          R        1.000E-03      1.000E+12      1.000E+12  


               X_U2.Rcmrr <X_U2.Rideal> (T_Current -273 T_Measured 27)
                              X_U2.RPD <X_U2.Rideal> (T_Current -273 T_Measured 27)
                                             X_U2.RDP1 <X_U2.Rideal> (T_Current -273 T_Measured 27)

          R        1.000E+03      2.860E+05      1.000E+03  


               X_U2.RF <X_U2.Rideal> (T_Current -273 T_Measured 27)
                              X_U2.R200 <X_U2.Rideal> (T_Current -273 T_Measured 27)
                                             X_U2.R210 <X_U2.Rideal> (T_Current -273 T_Measured 27)

          R        1.000E-03      1.000E+00      5.137E+06  


               X_U2.RX2 <X_U2.Rideal> (T_Current -273 T_Measured 27)
                              X_U2.R220 <X_U2.Rideal> (T_Current -273 T_Measured 27)
                                             X_U2.R230 <X_U2.Rideal> (T_Current -273 T_Measured 27)

          R        1.000E-03      1.000E+03      1.000E+03  


               X_U2.R240 <X_U2.Rideal> (T_Current -273 T_Measured 27)
                              X_U2.R245 <X_U2.Rideal> (T_Current -273 T_Measured 27)
                                             X_U2.R250 <X_U2.Rideal> (T_Current -273 T_Measured 27)

          R        1.000E+03      1.000E+03      1.000E+03  


               X_U2.R255 <X_U2.Rideal> (T_Current -273 T_Measured 27)
                              X_U2.R260 <X_U2.Rideal> (T_Current -273 T_Measured 27)
                                             X_U2.R265 <X_U2.Rideal> (T_Current -273 T_Measured 27)

          R        1.000E+03      1.000E+03      1.000E+03  


               X_U2.R270 <X_U2.Rideal> (T_Current -273 T_Measured 27)
                              X_U2.R281 <X_U2.Rideal> (T_Current -273 T_Measured 27)
                                             X_U2.R280 <X_U2.Rideal> (T_Current -273 T_Measured 27)

          R        1.000E+03      3.862E+01      1.000E+01  


               X_U2.R291 <X_U2.Rideal> (T_Current -273 T_Measured 27)
                              X_U2.R290 <X_U2.Rideal> (T_Current -273 T_Measured 27)
                                             X_U2.R300 <X_U2.Rideal> (T_Current -273 T_Measured 27)

          R        1.000E+06      1.000E-06      1.000E+03  


               X_U2.Rout <X_U2.Rideal> (T_Current -273 T_Measured 27)
                              X_U2.Rx3 <X_U2.Rideal> (T_Current -273 T_Measured 27)
                                             X_U2.RX4 <X_U2.Rideal> (T_Current -273 T_Measured 27)

          R        2.300E+01      1.000E-03      1.000E-03  


               X_U2.R314 <X_U2.Rideal> (T_Current -273 T_Measured 27)
                              X_U2.RX5 <X_U2.Rideal> (T_Current -273 T_Measured 27)
                                             X_U2.R315 <X_U2.Rideal> (T_Current -273 T_Measured 27)

          R        1.000E+09      1.000E-03      1.000E+09  



Model-Specific Temperatures After Sweep  Param value = 0.001

 **** RESISTORS

               X_U3.Rz1 <X_U3.Rideal> (T_Current -273 T_Measured 27)
                              X_U3.Rz2 <X_U3.Rideal> (T_Current -273 T_Measured 27)
                                             X_U3.R3 <X_U3.Rideal> (T_Current -273 T_Measured 27)

          R        1.000E-06      1.000E-06      1.000E+03  


               X_U3.R1 <X_U3.Rideal> (T_Current -273 T_Measured 27)
                              X_U3.R2 <X_U3.Rideal> (T_Current -273 T_Measured 27)
                                             X_U3.RinCMP <X_U3.Rideal> (T_Current -273 T_Measured 27)

          R        1.000E+07      1.000E+07      7.600E+06  


               X_U3.RinCMN <X_U3.Rideal> (T_Current -273 T_Measured 27)
                              X_U3.RinDiff <X_U3.Rideal> (T_Current -273 T_Measured 27)
                                             X_U3.RInP <X_U3.Rideal> (T_Current -273 T_Measured 27)

          R        7.600E+06      4.000E+03      1.000E+03  


               X_U3.RX1 <X_U3.Rideal> (T_Current -273 T_Measured 27)
                              X_U3.RcmrrP <X_U3.Rideal> (T_Current -273 T_Measured 27)
                                             X_U3.RcmrrN <X_U3.Rideal> (T_Current -273 T_Measured 27)

          R        1.000E-03      1.000E+12      1.000E+12  


               X_U3.Rcmrr <X_U3.Rideal> (T_Current -273 T_Measured 27)
                              X_U3.RPD <X_U3.Rideal> (T_Current -273 T_Measured 27)
                                             X_U3.RDP1 <X_U3.Rideal> (T_Current -273 T_Measured 27)

          R        1.000E+03      2.860E+05      1.000E+03  


               X_U3.RF <X_U3.Rideal> (T_Current -273 T_Measured 27)
                              X_U3.R200 <X_U3.Rideal> (T_Current -273 T_Measured 27)
                                             X_U3.R210 <X_U3.Rideal> (T_Current -273 T_Measured 27)

          R        1.000E-03      1.000E+00      5.137E+06  


               X_U3.RX2 <X_U3.Rideal> (T_Current -273 T_Measured 27)
                              X_U3.R220 <X_U3.Rideal> (T_Current -273 T_Measured 27)
                                             X_U3.R230 <X_U3.Rideal> (T_Current -273 T_Measured 27)

          R        1.000E-03      1.000E+03      1.000E+03  


               X_U3.R240 <X_U3.Rideal> (T_Current -273 T_Measured 27)
                              X_U3.R245 <X_U3.Rideal> (T_Current -273 T_Measured 27)
                                             X_U3.R250 <X_U3.Rideal> (T_Current -273 T_Measured 27)

          R        1.000E+03      1.000E+03      1.000E+03  


               X_U3.R255 <X_U3.Rideal> (T_Current -273 T_Measured 27)
                              X_U3.R260 <X_U3.Rideal> (T_Current -273 T_Measured 27)
                                             X_U3.R265 <X_U3.Rideal> (T_Current -273 T_Measured 27)

          R        1.000E+03      1.000E+03      1.000E+03  


               X_U3.R270 <X_U3.Rideal> (T_Current -273 T_Measured 27)
                              X_U3.R281 <X_U3.Rideal> (T_Current -273 T_Measured 27)
                                             X_U3.R280 <X_U3.Rideal> (T_Current -273 T_Measured 27)

          R        1.000E+03      3.862E+01      1.000E+01  


               X_U3.R291 <X_U3.Rideal> (T_Current -273 T_Measured 27)
                              X_U3.R290 <X_U3.Rideal> (T_Current -273 T_Measured 27)
                                             X_U3.R300 <X_U3.Rideal> (T_Current -273 T_Measured 27)

          R        1.000E+06      1.000E-06      1.000E+03  


               X_U3.Rout <X_U3.Rideal> (T_Current -273 T_Measured 27)
                              X_U3.Rx3 <X_U3.Rideal> (T_Current -273 T_Measured 27)
                                             X_U3.RX4 <X_U3.Rideal> (T_Current -273 T_Measured 27)

          R        2.300E+01      1.000E-03      1.000E-03  


               X_U3.R314 <X_U3.Rideal> (T_Current -273 T_Measured 27)
                              X_U3.RX5 <X_U3.Rideal> (T_Current -273 T_Measured 27)
                                             X_U3.R315 <X_U3.Rideal> (T_Current -273 T_Measured 27)

          R        1.000E+09      1.000E-03      1.000E+09  


               X_U2.Rz1 <X_U2.Rideal> (T_Current -273 T_Measured 27)
                              X_U2.Rz2 <X_U2.Rideal> (T_Current -273 T_Measured 27)
                                             X_U2.R3 <X_U2.Rideal> (T_Current -273 T_Measured 27)

          R        1.000E-06      1.000E-06      1.000E+03  


               X_U2.R1 <X_U2.Rideal> (T_Current -273 T_Measured 27)
                              X_U2.R2 <X_U2.Rideal> (T_Current -273 T_Measured 27)
                                             X_U2.RinCMP <X_U2.Rideal> (T_Current -273 T_Measured 27)

          R        1.000E+07      1.000E+07      7.600E+06  


               X_U2.RinCMN <X_U2.Rideal> (T_Current -273 T_Measured 27)
                              X_U2.RinDiff <X_U2.Rideal> (T_Current -273 T_Measured 27)
                                             X_U2.RInP <X_U2.Rideal> (T_Current -273 T_Measured 27)

          R        7.600E+06      4.000E+03      1.000E+03  


               X_U2.RX1 <X_U2.Rideal> (T_Current -273 T_Measured 27)
                              X_U2.RcmrrP <X_U2.Rideal> (T_Current -273 T_Measured 27)
                                             X_U2.RcmrrN <X_U2.Rideal> (T_Current -273 T_Measured 27)

          R        1.000E-03      1.000E+12      1.000E+12  


               X_U2.Rcmrr <X_U2.Rideal> (T_Current -273 T_Measured 27)
                              X_U2.RPD <X_U2.Rideal> (T_Current -273 T_Measured 27)
                                             X_U2.RDP1 <X_U2.Rideal> (T_Current -273 T_Measured 27)

          R        1.000E+03      2.860E+05      1.000E+03  


               X_U2.RF <X_U2.Rideal> (T_Current -273 T_Measured 27)
                              X_U2.R200 <X_U2.Rideal> (T_Current -273 T_Measured 27)
                                             X_U2.R210 <X_U2.Rideal> (T_Current -273 T_Measured 27)

          R        1.000E-03      1.000E+00      5.137E+06  


               X_U2.RX2 <X_U2.Rideal> (T_Current -273 T_Measured 27)
                              X_U2.R220 <X_U2.Rideal> (T_Current -273 T_Measured 27)
                                             X_U2.R230 <X_U2.Rideal> (T_Current -273 T_Measured 27)

          R        1.000E-03      1.000E+03      1.000E+03  


               X_U2.R240 <X_U2.Rideal> (T_Current -273 T_Measured 27)
                              X_U2.R245 <X_U2.Rideal> (T_Current -273 T_Measured 27)
                                             X_U2.R250 <X_U2.Rideal> (T_Current -273 T_Measured 27)

          R        1.000E+03      1.000E+03      1.000E+03  


               X_U2.R255 <X_U2.Rideal> (T_Current -273 T_Measured 27)
                              X_U2.R260 <X_U2.Rideal> (T_Current -273 T_Measured 27)
                                             X_U2.R265 <X_U2.Rideal> (T_Current -273 T_Measured 27)

          R        1.000E+03      1.000E+03      1.000E+03  


               X_U2.R270 <X_U2.Rideal> (T_Current -273 T_Measured 27)
                              X_U2.R281 <X_U2.Rideal> (T_Current -273 T_Measured 27)
                                             X_U2.R280 <X_U2.Rideal> (T_Current -273 T_Measured 27)

          R        1.000E+03      3.862E+01      1.000E+01  


               X_U2.R291 <X_U2.Rideal> (T_Current -273 T_Measured 27)
                              X_U2.R290 <X_U2.Rideal> (T_Current -273 T_Measured 27)
                                             X_U2.R300 <X_U2.Rideal> (T_Current -273 T_Measured 27)

          R        1.000E+06      1.000E-06      1.000E+03  


               X_U2.Rout <X_U2.Rideal> (T_Current -273 T_Measured 27)
                              X_U2.Rx3 <X_U2.Rideal> (T_Current -273 T_Measured 27)
                                             X_U2.RX4 <X_U2.Rideal> (T_Current -273 T_Measured 27)

          R        2.300E+01      1.000E-03      1.000E-03  


               X_U2.R314 <X_U2.Rideal> (T_Current -273 T_Measured 27)
                              X_U2.RX5 <X_U2.Rideal> (T_Current -273 T_Measured 27)
                                             X_U2.R315 <X_U2.Rideal> (T_Current -273 T_Measured 27)

          R        1.000E+09      1.000E-03      1.000E+09  




          JOB CONCLUDED

**** 08/10/17 15:41:53 ****** PSpice 17.0.0 (March 2014) ****** ID# 0 ********

 ** Profile: "SCHEMATIC3-Test Plan B"  [ F:\DESIGN\CIRCUITS\OrCAD\FPGA\BR0101\br0101_ad9715\br0101_ad9715-PSpiceFiles\SCHEMATIC3\Test


 ****     JOB STATISTICS SUMMARY


******************************************************************************



  Total job time (using Solver 1)   =         .28
