
**** 08/28/17 16:27:52 ****** PSpice 17.0.0 (March 2014) ****** ID# 0 ********

 ** Profile: "SCHEMATIC1-bias"  [ F:\DESIGN\CIRCUITS\ORCAD\FPGA\BR0101\br0101_ad9146\br0101_ad9146-pspicefiles\schematic1\bias.sim ] 


 ****     CIRCUIT DESCRIPTION


******************************************************************************




** Creating circuit file "bias.cir" 
** WARNING: THIS AUTOMATICALLY GENERATED FILE MAY BE OVERWRITTEN BY SUBSEQUENT SIMULATIONS

*Libraries: 
* Profile Libraries :
* Local Libraries :
.LIB "F:/Academic/FPGA/BR0101/Development/DAC/model/ad8000p.lib" 
* From [PSPICE NETLIST] section of G:\Cadence\SPB_Data\cdssetup\OrCAD_PSpice\17.0.0\PSpice.ini file:
.lib "nom.lib" 

*Analysis directives: 
.DC LIN PARAM x 0.06m 20.16m 0.1m 
.OPTIONS ADVCONV
.PROBE64 V(*) I(*) W(*) D(*) NOISE(*) 
.INC "..\SCHEMATIC1.net" 



**** INCLUDING SCHEMATIC1.net ****
* source BR0101_AD9146
X_U1         N00780 N00686 VCC VDD N00716 VCC AD8000 
I_I1         0 N00686 DC x  
-------------------------$
ERROR(ORPSIM-16492): Missing value
I_I2         0 N00803 DC 20.16m - x  
--------------------------------$
ERROR -- Expecting keyword STIMULUS, saw -.

R_R1         0 N00686  66.5 TC=0,0 
R_R2         N00686 N00716  178 TC=0,0 
R_R3         0 N00803  66.5 TC=0,0 
R_R4         N00803 N00824  178 TC=0,0 
X_U2         N00780 N00803 VCC VDD N00824 VCC AD8000 
V_V1         VCC 0 5V
V_V2         0 VDD 5V
V_V3         N00780 0 1.2V
.PARAM  x=10m

**** RESUMING bias.cir ****
.END
